data_temp
_symmetry_cell_setting triclinic
_symmetry_space_group_name_H-M 'P 1'
loop_
   _symmetry_equiv_pos_as_xyz
              X,Y,Z
_cell_length_a 70
_cell_length_b 70
_cell_length_c 70
_cell_angle_alpha 90
_cell_angle_beta 90
_cell_angle_gamma 90
loop_
   _atom_site_label
   _atom_site_type_symbol
   _atom_site_fract_x
   _atom_site_fract_y
   _atom_site_fract_z
   si1_1   Si     0.050471     0.008304     0.366234
   si1_1   Si     0.064882     0.011112     0.336018
   si1_1   Si     0.016564     0.001108     0.312044
   si1_1   Si     0.042350     0.022561     0.313886
   si1_1   Si     0.056760     0.025369     0.283671
   si1_1   Si     0.008662     0.064101     0.301681
   si1_1   Si     0.008443     0.015365     0.259697
   si1_1   Si     0.034229     0.036818     0.261539
   si1_1   Si     0.048639     0.039626     0.231324
   si1_1   Si     0.000321     0.029622     0.207350
   si1_1   Si     0.000541     0.078358     0.249334
   si1_1   Si     0.026107     0.051074     0.209192
   si1_1   Si     0.040518     0.053883     0.178976
   si1_1   Si     0.025888     0.002338     0.167208
   si1_1   Si     0.003356     0.013786     0.145076
   si1_1   Si     0.059795     0.009534     0.221397
   si1_1   Si     0.074206     0.012342     0.191181
   si1_1   Si     0.051674     0.023791     0.169050
   si1_1   Si     0.066084     0.026599     0.138834
   si1_1   Si     0.172622     0.067047     0.002892
   si1_1   Si     0.207561     0.013036     0.002934
   si1_1   Si     0.166607     0.174610     0.023676
   si1_1   Si     0.169615     0.120829     0.013284
   si1_1   Si     0.162640     0.234710     0.001087
   si1_1   Si     0.127701     0.288721     0.001045
   si1_1   Si     0.159599     0.030794     0.041950
   si1_1   Si     0.142610     0.054640     0.058420
   si1_1   Si     0.110678     0.054870     0.047987
   si1_1   Si     0.145617     0.000859     0.048028
   si1_1   Si     0.113685     0.001089     0.037595
   si1_1   Si     0.158640     0.037113     0.008970
   si1_1   Si     0.112726     0.007408     0.004615
   si1_1   Si     0.104663     0.162433     0.068770
   si1_1   Si     0.107670     0.108652     0.058378
   si1_1   Si     0.152625     0.144675     0.029753
   si1_1   Si     0.120693     0.144905     0.019320
   si1_1   Si     0.155632     0.090894     0.019362
   si1_1   Si     0.123701     0.091124     0.008929
   si1_1   Si     0.106711     0.114970     0.025398
   si1_1   Si     0.074779     0.115201     0.014965
   si1_1   Si     0.109718     0.061189     0.015007
   si1_1   Si     0.077786     0.061419     0.004573
   si1_1   Si     0.101656     0.216214     0.079161
   si1_1   Si     0.114678     0.252467     0.040103
   si1_1   Si     0.149618     0.198456     0.040145
   si1_1   Si     0.117686     0.198686     0.029712
   si1_1   Si     0.100696     0.222533     0.046181
   si1_1   Si     0.068764     0.222763     0.035748
   si1_1   Si     0.103703     0.168751     0.035790
   si1_1   Si     0.071772     0.168982     0.025357
   si1_1   Si     0.065757     0.276544     0.046140
   si1_1   Si     0.078780     0.312798     0.007082
   si1_1   Si     0.113719     0.258786     0.007123
   si1_1   Si     0.064797     0.282863     0.013160
   si1_1   Si     0.032865     0.283093     0.002727
   si1_1   Si     0.067805     0.229082     0.002768
   si1_1   Si     0.029858     0.336874     0.013118
   si1_1   Si     0.094648     0.072398     0.097436
   si1_1   Si     0.097655     0.018617     0.087045
   si1_1   Si     0.080665     0.042463     0.103514
   si1_1   Si     0.048733     0.042693     0.093081
   si1_1   Si     0.096695     0.024936     0.054065
   si1_1   Si     0.064764     0.025166     0.043631
   si1_1   Si     0.042719     0.150256     0.113864
   si1_1   Si     0.077658     0.096244     0.113906
   si1_1   Si     0.045726     0.096475     0.103473
   si1_1   Si     0.090681     0.132498     0.074848
   si1_1   Si     0.058749     0.132728     0.064415
   si1_1   Si     0.093688     0.078717     0.064456
   si1_1   Si     0.061756     0.078947     0.054023
   si1_1   Si     0.044766     0.102793     0.070492
   si1_1   Si     0.012835     0.103024     0.060059
   si1_1   Si     0.047774     0.049012     0.060101
   si1_1   Si     0.015842     0.049242     0.049668
   si1_1   Si     0.060797     0.085266     0.021043
   si1_1   Si     0.028865     0.085496     0.010610
   si1_1   Si     0.063804     0.031485     0.010651
   si1_1   Si     0.031872     0.031715     0.000218
   si1_1   Si     0.014882     0.055561     0.016688
   si1_1   Si     0.017890     0.001780     0.006296
   si1_1   Si     0.087673     0.186279     0.085239
   si1_1   Si     0.055741     0.186509     0.074806
   si1_1   Si     0.038752     0.210356     0.091275
   si1_1   Si     0.006820     0.210586     0.080842
   si1_1   Si     0.041759     0.156574     0.080884
   si1_1   Si     0.009827     0.156805     0.070451
   si1_1   Si     0.054782     0.192828     0.041826
   si1_1   Si     0.022850     0.193058     0.031393
   si1_1   Si     0.057789     0.139047     0.031434
   si1_1   Si     0.025857     0.139277     0.021001
   si1_1   Si     0.008868     0.163123     0.037471
   si1_1   Si     0.011875     0.109342     0.027079
   si1_1   Si     0.016835     0.300621     0.052176
   si1_1   Si     0.051774     0.246609     0.052218
   si1_1   Si     0.019843     0.246839     0.041784
   si1_1   Si     0.002853     0.270686     0.058254
   si1_1   Si     0.005860     0.216905     0.047862
   si1_1   Si     0.018883     0.253158     0.008804
   si1_1   Si     0.015876     0.306939     0.019196
   si1_1   Si     0.032703     0.060221     0.142531
   si1_1   Si     0.034751     0.012759     0.099159
   si1_1   Si     0.002819     0.012989     0.088726
   si1_1   Si     0.029696     0.114002     0.152922
   si1_1   Si     0.015713     0.084067     0.159000
   si1_1   Si     0.028736     0.120321     0.119942
   si1_1   Si     0.031744     0.066540     0.109550
   si1_1   Si     0.001860     0.019308     0.055746
   si1_1   Si     0.025729     0.174102     0.130333
   si1_1   Si     0.053476     0.799450     0.510100
   si1_1   Si     0.005378     0.838181     0.528111
   si1_1   Si     0.019788     0.840990     0.497895
   si1_1   Si     0.045574     0.862443     0.499738
   si1_1   Si     0.059985     0.865252     0.469522
   si1_1   Si     0.026297     0.906792     0.457317
   si1_1   Si     0.066494     0.931053     0.428943
   si1_1   Si     0.005158     0.789445     0.486127
   si1_1   Si     0.016314     0.759353     0.476200
   si1_1   Si     0.030725     0.762161     0.445985
   si1_1   Si     0.030944     0.810898     0.487969
   si1_1   Si     0.045355     0.813706     0.457753
   si1_1   Si     0.011667     0.855247     0.445548
   si1_1   Si     0.022823     0.825155     0.435622
   si1_1   Si     0.037233     0.827963     0.405406
   si1_1   Si     0.037453     0.876700     0.447391
   si1_1   Si     0.051864     0.879508     0.417175
   si1_1   Si     0.003546     0.869504     0.393201
   si1_1   Si     0.003766     0.918240     0.435186
   si1_1   Si     0.018176     0.921049     0.404970
   si1_1   Si     0.029332     0.890957     0.395043
   si1_1   Si     0.043742     0.893765     0.364828
   si1_1   Si     0.043962     0.942502     0.406812
   si1_1   Si     0.058373     0.945310     0.376596
   si1_1   Si     0.010055     0.935306     0.352623
   si1_1   Si     0.010275     0.984042     0.394607
   si1_1   Si     0.024685     0.986851     0.364391
   si1_1   Si     0.035841     0.956759     0.354465
   si1_1   Si     0.050251     0.959567     0.324249
   si1_1   Si     0.002153     0.998299     0.342260
   si1_1   Si     0.016094     0.710616     0.434216
   si1_1   Si     0.007973     0.724873     0.381869
   si1_1   Si     0.008193     0.773610     0.423853
   si1_1   Si     0.022603     0.776418     0.393637
   si1_1   Si     0.000072     0.787867     0.371506
   si1_1   Si     0.014482     0.790675     0.341290
   si1_1   Si     0.014702     0.839412     0.383275
   si1_1   Si     0.029112     0.842220     0.353059
   si1_1   Si     0.006581     0.853668     0.330927
   si1_1   Si     0.020991     0.856477     0.300712
   si1_1   Si     0.021211     0.905214     0.342696
   si1_1   Si     0.035621     0.908022     0.312480
   si1_1   Si     0.001934     0.949563     0.300276
   si1_1   Si     0.013090     0.919470     0.290349
   si1_1   Si     0.027500     0.922279     0.260133
   si1_1   Si     0.027720     0.971016     0.302118
   si1_1   Si     0.042130     0.973824     0.271902
   si1_1   Si     0.019599     0.985272     0.249771
   si1_1   Si     0.034009     0.988081     0.219555
   si1_1   Si     0.006361     0.804932     0.288943
   si1_1   Si     0.012870     0.870734     0.248365
   si1_1   Si     0.004749     0.884991     0.196017
   si1_1   Si     0.004968     0.933727     0.238002
   si1_1   Si     0.019379     0.936536     0.207786
   si1_1   Si     0.011258     0.950793     0.155439
   si1_1   Si     0.011477     0.999529     0.197423
   si1_1   Si     0.003136     0.965050     0.103092
   si1_1   Si     0.064412     0.720621     0.458190
   si1_1   Si     0.064632     0.769357     0.500174
   si1_1   Si     0.079042     0.772166     0.469958
   si1_1   Si     0.056511     0.783614     0.447827
   si1_1   Si     0.070921     0.786423     0.417611
   si1_1   Si     0.071141     0.835159     0.459595
   si1_1   Si     0.085551     0.837968     0.429380
   si1_1   Si     0.096707     0.807875     0.419453
   si1_1   Si     0.111118     0.810684     0.389238
   si1_1   Si     0.063020     0.849416     0.407248
   si1_1   Si     0.077430     0.852225     0.377033
   si1_1   Si     0.077650     0.900961     0.419017
   si1_1   Si     0.092060     0.903770     0.388801
   si1_1   Si     0.103216     0.873677     0.378875
   si1_1   Si     0.117627     0.876486     0.348659
   si1_1   Si     0.069529     0.915218     0.366670
   si1_1   Si     0.083939     0.918027     0.336454
   si1_1   Si     0.084159     0.966763     0.378439
   si1_1   Si     0.098569     0.969572     0.348223
   si1_1   Si     0.109725     0.939479     0.338296
   si1_1   Si     0.124136     0.942288     0.308081
   si1_1   Si     0.076038     0.981020     0.326091
   si1_1   Si     0.090448     0.983829     0.295876
   si1_1   Si     0.027250     0.680524     0.424289
   si1_1   Si     0.041661     0.683333     0.394074
   si1_1   Si     0.041880     0.732069     0.436058
   si1_1   Si     0.056291     0.734878     0.405842
   si1_1   Si     0.067447     0.704785     0.395916
   si1_1   Si     0.081857     0.707594     0.365700
   si1_1   Si     0.082077     0.756330     0.407685
   si1_1   Si     0.096488     0.759139     0.377469
   si1_1   Si     0.033759     0.746326     0.383711
   si1_1   Si     0.048170     0.749135     0.353495
   si1_1   Si     0.048389     0.797871     0.395480
   si1_1   Si     0.062800     0.800680     0.365264
   si1_1   Si     0.073956     0.770587     0.355337
   si1_1   Si     0.088366     0.773396     0.325122
   si1_1   Si     0.088586     0.822132     0.367106
   si1_1   Si     0.102997     0.824941     0.336890
   si1_1   Si     0.040268     0.812128     0.343132
   si1_1   Si     0.054679     0.814937     0.312917
   si1_1   Si     0.054898     0.863673     0.354901
   si1_1   Si     0.069309     0.866482     0.324685
   si1_1   Si     0.080465     0.836389     0.314759
   si1_1   Si     0.094875     0.839198     0.284543
   si1_1   Si     0.095095     0.887934     0.326528
   si1_1   Si     0.109505     0.890743     0.296312
   si1_1   Si     0.046777     0.877930     0.302554
   si1_1   Si     0.061188     0.880739     0.272338
   si1_1   Si     0.061407     0.929475     0.314323
   si1_1   Si     0.075818     0.932284     0.284107
   si1_1   Si     0.086974     0.902191     0.274180
   si1_1   Si     0.101384     0.905000     0.243965
   si1_1   Si     0.101604     0.953736     0.285949
   si1_1   Si     0.116014     0.956545     0.255733
   si1_1   Si     0.053286     0.943732     0.261976
   si1_1   Si     0.067697     0.946541     0.231760
   si1_1   Si     0.067916     0.995277     0.273744
   si1_1   Si     0.082327     0.998086     0.243528
   si1_1   Si     0.093483     0.967993     0.233602
   si1_1   Si     0.107893     0.970802     0.203386
   si1_1   Si     0.027031     0.631788     0.382305
   si1_1   Si     0.052597     0.604504     0.342163
   si1_1   Si     0.052817     0.653240     0.384147
   si1_1   Si     0.067227     0.656049     0.353931
   si1_1   Si     0.004499     0.643236     0.360173
   si1_1   Si     0.018909     0.646044     0.329958
   si1_1   Si     0.019129     0.694781     0.371942
   si1_1   Si     0.033540     0.697590     0.341726
   si1_1   Si     0.044696     0.667497     0.331800
   si1_1   Si     0.059106     0.670306     0.301584
   si1_1   Si     0.059326     0.719042     0.343569
   si1_1   Si     0.073736     0.721851     0.313353
   si1_1   Si     0.011008     0.709038     0.319595
   si1_1   Si     0.025418     0.711846     0.289379
   si1_1   Si     0.025638     0.760583     0.331364
   si1_1   Si     0.040049     0.763391     0.301148
   si1_1   Si     0.051204     0.733299     0.291222
   si1_1   Si     0.065615     0.736108     0.261006
   si1_1   Si     0.065835     0.784844     0.302990
   si1_1   Si     0.080245     0.787653     0.272775
   si1_1   Si     0.017517     0.774840     0.279017
   si1_1   Si     0.031927     0.777648     0.248801
   si1_1   Si     0.032147     0.826385     0.290785
   si1_1   Si     0.046557     0.829193     0.260570
   si1_1   Si     0.057713     0.799101     0.250643
   si1_1   Si     0.072124     0.801910     0.220427
   si1_1   Si     0.072344     0.850646     0.262412
   si1_1   Si     0.086754     0.853455     0.232196
   si1_1   Si     0.024026     0.840642     0.238438
   si1_1   Si     0.038436     0.843450     0.208222
   si1_1   Si     0.038656     0.892187     0.250207
   si1_1   Si     0.053066     0.894995     0.219991
   si1_1   Si     0.064222     0.864903     0.210065
   si1_1   Si     0.078633     0.867712     0.179849
   si1_1   Si     0.078853     0.916448     0.221833
   si1_1   Si     0.093263     0.919257     0.191618
   si1_1   Si     0.030535     0.906444     0.197860
   si1_1   Si     0.044945     0.909252     0.167644
   si1_1   Si     0.045165     0.957989     0.209628
   si1_1   Si     0.059575     0.960797     0.179413
   si1_1   Si     0.070731     0.930705     0.169486
   si1_1   Si     0.085142     0.933514     0.139270
   si1_1   Si     0.085362     0.982250     0.181255
   si1_1   Si     0.099772     0.985059     0.151039
   si1_1   Si     0.037044     0.972246     0.157281
   si1_1   Si     0.051454     0.975054     0.127065
   si1_1   Si     0.077240     0.996507     0.128908
   si1_1   Si     0.091651     0.999316     0.098692
   si1_1   Si     0.004279     0.594499     0.318189
   si1_1   Si     0.030065     0.615952     0.320031
   si1_1   Si     0.044476     0.618761     0.289816
   si1_1   Si     0.010788     0.660301     0.277611
   si1_1   Si     0.021944     0.630209     0.267684
   si1_1   Si     0.036355     0.633018     0.237468
   si1_1   Si     0.036574     0.681754     0.279453
   si1_1   Si     0.050985     0.684563     0.249237
   si1_1   Si     0.002667     0.674558     0.225263
   si1_1   Si     0.002887     0.723295     0.267248
   si1_1   Si     0.017297     0.726103     0.237032
   si1_1   Si     0.028453     0.696011     0.227106
   si1_1   Si     0.042864     0.698820     0.196890
   si1_1   Si     0.043083     0.747556     0.238874
   si1_1   Si     0.057494     0.750365     0.208659
   si1_1   Si     0.009176     0.740360     0.184685
   si1_1   Si     0.009396     0.789097     0.226669
   si1_1   Si     0.023806     0.791905     0.196454
   si1_1   Si     0.034962     0.761813     0.186527
   si1_1   Si     0.049373     0.764622     0.156311
   si1_1   Si     0.049592     0.813358     0.198296
   si1_1   Si     0.064003     0.816167     0.168080
   si1_1   Si     0.001274     0.803354     0.174322
   si1_1   Si     0.015685     0.806162     0.144107
   si1_1   Si     0.015905     0.854899     0.186091
   si1_1   Si     0.030315     0.857707     0.155875
   si1_1   Si     0.041471     0.827615     0.145949
   si1_1   Si     0.055881     0.830424     0.115733
   si1_1   Si     0.056101     0.879160     0.157717
   si1_1   Si     0.070512     0.881969     0.127502
   si1_1   Si     0.007783     0.869156     0.133744
   si1_1   Si     0.022194     0.871964     0.103528
   si1_1   Si     0.022414     0.920701     0.145512
   si1_1   Si     0.036824     0.923509     0.115297
   si1_1   Si     0.047980     0.893417     0.105370
   si1_1   Si     0.062390     0.896226     0.075155
   si1_1   Si     0.062610     0.944962     0.117139
   si1_1   Si     0.077021     0.947771     0.086923
   si1_1   Si     0.014292     0.934957     0.093165
   si1_1   Si     0.028703     0.937766     0.062950
   si1_1   Si     0.028923     0.986503     0.104934
   si1_1   Si     0.021724     0.581473     0.225700
   si1_1   Si     0.013603     0.595729     0.173353
   si1_1   Si     0.013823     0.644466     0.215337
   si1_1   Si     0.028233     0.647275     0.185121
   si1_1   Si     0.005702     0.658723     0.162990
   si1_1   Si     0.020112     0.661531     0.132774
   si1_1   Si     0.020332     0.710268     0.174759
   si1_1   Si     0.034742     0.713077     0.144543
   si1_1   Si     0.001055     0.754617     0.132338
   si1_1   Si     0.012211     0.724525     0.122411
   si1_1   Si     0.026621     0.727333     0.092196
   si1_1   Si     0.026841     0.776070     0.134180
   si1_1   Si     0.041251     0.778879     0.103964
   si1_1   Si     0.007564     0.820419     0.091759
   si1_1   Si     0.018720     0.790327     0.081833
   si1_1   Si     0.033130     0.793135     0.051617
   si1_1   Si     0.033350     0.841872     0.093602
   si1_1   Si     0.047760     0.844680     0.063386
   si1_1   Si     0.014073     0.886221     0.051181
   si1_1   Si     0.025229     0.856129     0.041254
   si1_1   Si     0.039639     0.858937     0.011039
   si1_1   Si     0.039859     0.907674     0.053023
   si1_1   Si     0.054269     0.910482     0.022807
   si1_1   Si     0.005482     0.609986     0.121005
   si1_1   Si     0.011991     0.675788     0.080427
   si1_1   Si     0.003870     0.690045     0.028080
   si1_1   Si     0.004089     0.738782     0.070064
   si1_1   Si     0.018500     0.741590     0.039848
   si1_1   Si     0.010598     0.804584     0.029486
   si1_1   Si     0.114153     0.794849     0.326964
   si1_1   Si     0.128563     0.797657     0.296748
   si1_1   Si     0.128783     0.846394     0.338733
   si1_1   Si     0.143193     0.849202     0.308517
   si1_1   Si     0.120661     0.860651     0.286385
   si1_1   Si     0.135072     0.863459     0.256170
   si1_1   Si     0.135292     0.912196     0.298154
   si1_1   Si     0.149702     0.915004     0.267938
   si1_1   Si     0.127170     0.926453     0.245807
   si1_1   Si     0.141581     0.929261     0.215591
   si1_1   Si     0.078383     0.625957     0.344005
   si1_1   Si     0.084892     0.691759     0.303426
   si1_1   Si     0.099303     0.694567     0.273211
   si1_1   Si     0.099522     0.743304     0.315195
   si1_1   Si     0.113933     0.746112     0.284979
   si1_1   Si     0.125089     0.716020     0.275053
   si1_1   Si     0.139499     0.718829     0.244837
   si1_1   Si     0.139719     0.767565     0.286822
   si1_1   Si     0.091401     0.757561     0.262848
   si1_1   Si     0.105812     0.760369     0.232632
   si1_1   Si     0.106031     0.809106     0.274617
   si1_1   Si     0.120442     0.811914     0.244401
   si1_1   Si     0.131598     0.781822     0.234475
   si1_1   Si     0.146008     0.784631     0.204259
   si1_1   Si     0.146228     0.833367     0.246243
   si1_1   Si     0.160638     0.836176     0.216027
   si1_1   Si     0.097910     0.823363     0.222270
   si1_1   Si     0.112321     0.826171     0.192054
   si1_1   Si     0.112540     0.874908     0.234038
   si1_1   Si     0.126951     0.877716     0.203823
   si1_1   Si     0.138107     0.847624     0.193896
   si1_1   Si     0.152517     0.850433     0.163680
   si1_1   Si     0.152737     0.899169     0.205665
   si1_1   Si     0.167147     0.901978     0.175449
   si1_1   Si     0.104419     0.889164     0.181691
   si1_1   Si     0.118829     0.891973     0.151475
   si1_1   Si     0.119049     0.940710     0.193460
   si1_1   Si     0.133460     0.943518     0.163244
   si1_1   Si     0.144616     0.913426     0.153318
   si1_1   Si     0.159026     0.916235     0.123102
   si1_1   Si     0.159246     0.964971     0.165086
   si1_1   Si     0.110928     0.954966     0.141113
   si1_1   Si     0.125338     0.957775     0.110897
   si1_1   Si     0.151125     0.979228     0.112739
   si1_1   Si     0.055632     0.588668     0.279889
   si1_1   Si     0.070042     0.591477     0.249673
   si1_1   Si     0.070262     0.640213     0.291658
   si1_1   Si     0.084672     0.643022     0.261442
   si1_1   Si     0.095828     0.612930     0.251516
   si1_1   Si     0.110239     0.615738     0.221300
   si1_1   Si     0.110459     0.664475     0.263284
   si1_1   Si     0.124869     0.667284     0.233069
   si1_1   Si     0.062141     0.654470     0.239311
   si1_1   Si     0.076551     0.657279     0.209095
   si1_1   Si     0.076771     0.706015     0.251079
   si1_1   Si     0.091181     0.708824     0.220864
   si1_1   Si     0.102337     0.678732     0.210937
   si1_1   Si     0.116748     0.681540     0.180721
   si1_1   Si     0.116968     0.730277     0.222706
   si1_1   Si     0.131378     0.733085     0.192490
   si1_1   Si     0.068650     0.720272     0.198732
   si1_1   Si     0.083060     0.723081     0.168516
   si1_1   Si     0.083280     0.771817     0.210501
   si1_1   Si     0.097690     0.774626     0.180285
   si1_1   Si     0.108846     0.744534     0.170359
   si1_1   Si     0.123257     0.747342     0.140143
   si1_1   Si     0.123477     0.796079     0.182127
   si1_1   Si     0.137887     0.798887     0.151912
   si1_1   Si     0.075159     0.786074     0.158154
   si1_1   Si     0.089569     0.788883     0.127938
   si1_1   Si     0.089789     0.837619     0.169922
   si1_1   Si     0.104199     0.840428     0.139707
   si1_1   Si     0.115355     0.810336     0.129780
   si1_1   Si     0.129766     0.813144     0.099564
   si1_1   Si     0.129985     0.861881     0.141549
   si1_1   Si     0.144396     0.864689     0.111333
   si1_1   Si     0.081668     0.851876     0.117575
   si1_1   Si     0.096078     0.854685     0.087360
   si1_1   Si     0.096298     0.903421     0.129344
   si1_1   Si     0.110708     0.906230     0.099128
   si1_1   Si     0.121864     0.876138     0.089202
   si1_1   Si     0.136275     0.878946     0.058986
   si1_1   Si     0.136494     0.927683     0.100970
   si1_1   Si     0.150905     0.930491     0.070755
   si1_1   Si     0.088177     0.917678     0.076997
   si1_1   Si     0.102587     0.920487     0.046781
   si1_1   Si     0.102807     0.969223     0.088765
   si1_1   Si     0.128373     0.941940     0.048623
   si1_1   Si     0.047511     0.602925     0.227542
   si1_1   Si     0.061921     0.605734     0.197326
   si1_1   Si     0.087707     0.627187     0.199168
   si1_1   Si     0.102118     0.629995     0.168953
   si1_1   Si     0.039389     0.617182     0.175195
   si1_1   Si     0.053800     0.619991     0.144979
   si1_1   Si     0.054020     0.668727     0.186963
   si1_1   Si     0.068430     0.671536     0.156748
   si1_1   Si     0.079586     0.641444     0.146821
   si1_1   Si     0.093996     0.644252     0.116606
   si1_1   Si     0.094216     0.692989     0.158590
   si1_1   Si     0.108627     0.695797     0.128374
   si1_1   Si     0.045898     0.682984     0.134616
   si1_1   Si     0.060309     0.685793     0.104401
   si1_1   Si     0.060528     0.734529     0.146385
   si1_1   Si     0.074939     0.737338     0.116169
   si1_1   Si     0.086095     0.707246     0.106243
   si1_1   Si     0.100505     0.710054     0.076027
   si1_1   Si     0.100725     0.758791     0.118011
   si1_1   Si     0.115136     0.761599     0.087796
   si1_1   Si     0.052407     0.748786     0.094038
   si1_1   Si     0.066818     0.751595     0.063822
   si1_1   Si     0.067037     0.800331     0.105807
   si1_1   Si     0.081448     0.803140     0.075591
   si1_1   Si     0.092604     0.773048     0.065664
   si1_1   Si     0.107014     0.775856     0.035449
   si1_1   Si     0.107234     0.824593     0.077433
   si1_1   Si     0.121645     0.827401     0.047217
   si1_1   Si     0.058916     0.814588     0.053459
   si1_1   Si     0.073327     0.817397     0.023244
   si1_1   Si     0.073546     0.866133     0.065228
   si1_1   Si     0.087957     0.868942     0.035012
   si1_1   Si     0.099113     0.838850     0.025086
   si1_1   Si     0.113743     0.890395     0.036855
   si1_1   Si     0.128153     0.893203     0.006639
   si1_1   Si     0.065425     0.880390     0.012881
   si1_1   Si     0.064956     0.589899     0.135053
   si1_1   Si     0.079366     0.592707     0.104837
   si1_1   Si     0.016638     0.579894     0.111079
   si1_1   Si     0.031048     0.582703     0.080863
   si1_1   Si     0.031268     0.631439     0.122848
   si1_1   Si     0.045679     0.634248     0.092632
   si1_1   Si     0.056835     0.604155     0.082705
   si1_1   Si     0.071245     0.606964     0.052490
   si1_1   Si     0.071465     0.655701     0.094474
   si1_1   Si     0.085875     0.658509     0.064258
   si1_1   Si     0.023147     0.645696     0.070500
   si1_1   Si     0.037557     0.648505     0.040285
   si1_1   Si     0.037777     0.697241     0.082269
   si1_1   Si     0.052188     0.700050     0.052053
   si1_1   Si     0.063344     0.669957     0.042127
   si1_1   Si     0.077974     0.721502     0.053896
   si1_1   Si     0.092384     0.724311     0.023680
   si1_1   Si     0.029656     0.711498     0.029922
   si1_1   Si     0.044286     0.763043     0.041691
   si1_1   Si     0.058697     0.765852     0.011475
   si1_1   Si     0.084483     0.787304     0.013317
   si1_1   Si     0.050795     0.828845     0.001112
   si1_1   Si     0.008517     0.594151     0.058732
   si1_1   Si     0.171794     0.806083     0.206101
   si1_1   Si     0.186205     0.808892     0.175885
   si1_1   Si     0.178303     0.871885     0.165523
   si1_1   Si     0.192714     0.874694     0.135307
   si1_1   Si     0.184812     0.937687     0.124944
   si1_1   Si     0.199223     0.940496     0.094728
   si1_1   Si     0.142534     0.702993     0.182564
   si1_1   Si     0.156944     0.705802     0.152348
   si1_1   Si     0.157164     0.754538     0.194332
   si1_1   Si     0.171575     0.757347     0.164117
   si1_1   Si     0.149043     0.768795     0.141985
   si1_1   Si     0.163453     0.771604     0.111769
   si1_1   Si     0.163673     0.820340     0.153754
   si1_1   Si     0.178084     0.823149     0.123538
   si1_1   Si     0.189240     0.793057     0.113612
   si1_1   Si     0.203650     0.795865     0.083396
   si1_1   Si     0.203870     0.844602     0.125380
   si1_1   Si     0.218280     0.847410     0.095165
   si1_1   Si     0.155552     0.834597     0.101407
   si1_1   Si     0.169962     0.837406     0.071191
   si1_1   Si     0.170182     0.886142     0.113175
   si1_1   Si     0.184593     0.888951     0.082960
   si1_1   Si     0.195749     0.858858     0.073033
   si1_1   Si     0.210159     0.861667     0.042817
   si1_1   Si     0.210379     0.910404     0.084802
   si1_1   Si     0.224789     0.913212     0.054586
   si1_1   Si     0.162061     0.900399     0.060828
   si1_1   Si     0.176471     0.903208     0.030612
   si1_1   Si     0.176691     0.951944     0.072597
   si1_1   Si     0.191102     0.954753     0.042381
   si1_1   Si     0.202257     0.924660     0.032455
   si1_1   Si     0.113274     0.599903     0.159026
   si1_1   Si     0.127684     0.602712     0.128810
   si1_1   Si     0.127904     0.651448     0.170795
   si1_1   Si     0.142314     0.654257     0.140579
   si1_1   Si     0.153470     0.624164     0.130653
   si1_1   Si     0.119783     0.665705     0.118448
   si1_1   Si     0.134193     0.668514     0.088232
   si1_1   Si     0.134413     0.717250     0.130216
   si1_1   Si     0.148823     0.720059     0.100001
   si1_1   Si     0.159979     0.689966     0.090074
   si1_1   Si     0.174390     0.692775     0.059858
   si1_1   Si     0.174609     0.741511     0.101843
   si1_1   Si     0.189020     0.744320     0.071627
   si1_1   Si     0.126292     0.731507     0.077869
   si1_1   Si     0.140702     0.734316     0.047654
   si1_1   Si     0.140922     0.783052     0.089638
   si1_1   Si     0.155332     0.785861     0.059422
   si1_1   Si     0.166488     0.755768     0.049496
   si1_1   Si     0.181118     0.807313     0.061264
   si1_1   Si     0.195529     0.810122     0.031049
   si1_1   Si     0.132800     0.797309     0.037291
   si1_1   Si     0.147431     0.848854     0.049060
   si1_1   Si     0.161841     0.851663     0.018844
   si1_1   Si     0.187627     0.873115     0.020686
   si1_1   Si     0.153940     0.914656     0.008481
   si1_1   Si     0.105152     0.614160     0.106679
   si1_1   Si     0.119563     0.616969     0.076463
   si1_1   Si     0.130719     0.586876     0.066537
   si1_1   Si     0.145349     0.638421     0.078306
   si1_1   Si     0.159759     0.641230     0.048090
   si1_1   Si     0.097031     0.628417     0.054332
   si1_1   Si     0.111661     0.679962     0.066101
   si1_1   Si     0.126072     0.682771     0.035885
   si1_1   Si     0.151858     0.704223     0.037727
   si1_1   Si     0.118170     0.745764     0.025522
   si1_1   Si     0.200176     0.714228     0.061701
   si1_1   Si     0.214806     0.765773     0.073469
   si1_1   Si     0.221315     0.831575     0.032891
   si1_1   Si     0.185546     0.662683     0.049932
   si1_1   Si     0.017038     0.468714     0.580388
   si1_1   Si     0.064533     0.485892     0.558972
   si1_1   Si     0.022304     0.473993     0.526039
   si1_1   Si     0.006458     0.482393     0.497634
   si1_1   Si     0.048686     0.494292     0.530567
   si1_1   Si     0.038110     0.526110     0.532633
   si1_1   Si     0.001192     0.477114     0.551983
   si1_1   Si     0.016997     0.529230     0.558576
   si1_1   Si     0.006421     0.561049     0.560642
   si1_1   Si     0.085604     0.543288     0.511217
   si1_1   Si     0.001147     0.519490     0.445350
   si1_1   Si     0.043375     0.531389     0.478283
   si1_1   Si     0.027529     0.539788     0.449878
   si1_1   Si     0.016952     0.571607     0.451944
   si1_1   Si     0.069757     0.551687     0.482811
   si1_1   Si     0.059181     0.583506     0.484877
   si1_1   Si     0.022263     0.534509     0.504227
   si1_1   Si     0.011686     0.566328     0.506293
   si1_1   Si     0.064492     0.546408     0.537160
   si1_1   Si     0.053915     0.578227     0.539226
   si1_1   Si     0.038068     0.586626     0.510821
   si1_1   Si     0.027492     0.618444     0.512886
   si1_1   Si     0.032803     0.581347     0.565170
   si1_1   Si     0.006380     0.621565     0.538830
   si1_1   Si     0.022218     0.576886     0.397594
   si1_1   Si     0.064446     0.588785     0.430528
   si1_1   Si     0.048600     0.597184     0.402122
   si1_1   Si     0.038023     0.629002     0.404188
   si1_1   Si     0.043334     0.591905     0.456471
   si1_1   Si     0.032758     0.623723     0.458537
   si1_1   Si     0.059140     0.644022     0.463065
   si1_1   Si     0.048563     0.675840     0.465131
   si1_1   Si     0.053874     0.638743     0.517414
   si1_1   Si     0.043297     0.670561     0.519480
   si1_1   Si     0.006371     0.585285     0.369189
   si1_1   Si     0.001106     0.580006     0.423538
   si1_1   Si     0.016911     0.632123     0.430132
   si1_1   Si     0.006334     0.663941     0.432197
   si1_1   Si     0.011645     0.626844     0.484481
   si1_1   Si     0.001069     0.658662     0.486547
   si1_1   Si     0.027451     0.678961     0.491074
   si1_1   Si     0.016874     0.710779     0.493140
   si1_1   Si     0.022185     0.673682     0.545424
   si1_1   Si     0.011608     0.705500     0.547489
   si1_1   Si     0.001028     0.719178     0.464735
   si1_1   Si     0.043256     0.731077     0.497668
   si1_1   Si     0.032680     0.762896     0.499734
   si1_1   Si     0.011567     0.766016     0.525677
   si1_1   Si     0.000991     0.797835     0.527743
   si1_1   Si     0.234567     0.079224     0.957798
   si1_1   Si     0.231559     0.133006     0.968190
   si1_1   Si     0.230600     0.139324     0.935210
   si1_1   Si     0.198668     0.139555     0.924777
   si1_1   Si     0.195660     0.193336     0.935168
   si1_1   Si     0.194701     0.199654     0.902188
   si1_1   Si     0.162769     0.199885     0.891755
   si1_1   Si     0.126870     0.260215     0.858733
   si1_1   Si     0.175630     0.013266     0.992501
   si1_1   Si     0.220584     0.049290     0.963876
   si1_1   Si     0.188652     0.049520     0.953443
   si1_1   Si     0.174670     0.019585     0.959521
   si1_1   Si     0.142738     0.019815     0.949088
   si1_1   Si     0.182638     0.157082     0.974226
   si1_1   Si     0.217577     0.103071     0.974268
   si1_1   Si     0.185645     0.103301     0.963834
   si1_1   Si     0.168655     0.127147     0.980304
   si1_1   Si     0.136723     0.127378     0.969871
   si1_1   Si     0.171663     0.073366     0.969912
   si1_1   Si     0.139731     0.073596     0.959479
   si1_1   Si     0.184685     0.109620     0.930854
   si1_1   Si     0.152754     0.109850     0.920421
   si1_1   Si     0.187693     0.055839     0.920463
   si1_1   Si     0.155761     0.056069     0.910030
   si1_1   Si     0.138771     0.079915     0.926499
   si1_1   Si     0.106839     0.080145     0.916066
   si1_1   Si     0.141779     0.026134     0.916107
   si1_1   Si     0.109847     0.026364     0.905674
   si1_1   Si     0.108887     0.032683     0.872694
   si1_1   Si     0.076955     0.032913     0.862261
   si1_1   Si     0.179630     0.210863     0.984618
   si1_1   Si     0.130709     0.234940     0.990654
   si1_1   Si     0.165648     0.180928     0.990695
   si1_1   Si     0.133716     0.181159     0.980262
   si1_1   Si     0.178671     0.217182     0.951637
   si1_1   Si     0.146739     0.217412     0.941204
   si1_1   Si     0.181678     0.163401     0.941246
   si1_1   Si     0.149746     0.163631     0.930813
   si1_1   Si     0.132756     0.187477     0.947282
   si1_1   Si     0.100825     0.187708     0.936849
   si1_1   Si     0.135764     0.133696     0.936891
   si1_1   Si     0.103832     0.133927     0.926458
   si1_1   Si     0.148787     0.169950     0.897833
   si1_1   Si     0.116855     0.170180     0.887400
   si1_1   Si     0.151794     0.116169     0.887441
   si1_1   Si     0.119862     0.116399     0.877008
   si1_1   Si     0.102872     0.140245     0.893477
   si1_1   Si     0.070941     0.140476     0.883044
   si1_1   Si     0.105880     0.086464     0.883086
   si1_1   Si     0.073948     0.086694     0.872653
   si1_1   Si     0.041057     0.093243     0.829240
   si1_1   Si     0.143731     0.271193     0.951596
   si1_1   Si     0.126742     0.295040     0.968065
   si1_1   Si     0.094810     0.295270     0.957632
   si1_1   Si     0.129749     0.241259     0.957674
   si1_1   Si     0.097817     0.241489     0.947241
   si1_1   Si     0.110840     0.277742     0.908183
   si1_1   Si     0.145779     0.223731     0.908224
   si1_1   Si     0.113847     0.223961     0.897791
   si1_1   Si     0.096858     0.247808     0.914261
   si1_1   Si     0.064926     0.248038     0.903827
   si1_1   Si     0.099865     0.194026     0.903869
   si1_1   Si     0.067933     0.194257     0.893436
   si1_1   Si     0.112888     0.230280     0.864811
   si1_1   Si     0.080956     0.230510     0.854378
   si1_1   Si     0.083963     0.176729     0.843986
   si1_1   Si     0.066974     0.200575     0.860456
   si1_1   Si     0.035042     0.200806     0.850023
   si1_1   Si     0.069981     0.146794     0.850064
   si1_1   Si     0.038049     0.147025     0.839631
   si1_1   Si     0.005158     0.153574     0.796218
   si1_1   Si     0.058911     0.355600     0.924611
   si1_1   Si     0.093850     0.301589     0.924652
   si1_1   Si     0.061918     0.301819     0.914219
   si1_1   Si     0.074941     0.338073     0.875161
   si1_1   Si     0.109880     0.284061     0.875203
   si1_1   Si     0.077949     0.284291     0.864769
   si1_1   Si     0.060959     0.308138     0.881239
   si1_1   Si     0.029027     0.308368     0.870806
   si1_1   Si     0.063966     0.254357     0.870847
   si1_1   Si     0.032034     0.254587     0.860414
   si1_1   Si     0.076989     0.290610     0.831789
   si1_1   Si     0.045057     0.290840     0.821356
   si1_1   Si     0.048065     0.237059     0.810965
   si1_1   Si     0.031075     0.260906     0.827434
   si1_1   Si     0.034082     0.207124     0.817043
   si1_1   Si     0.002150     0.207355     0.806609
   si1_1   Si     0.057951     0.361919     0.891630
   si1_1   Si     0.026020     0.362149     0.881197
   si1_1   Si     0.042050     0.344622     0.831748
   si1_1   Si     0.025060     0.368468     0.848217
   si1_1   Si     0.028067     0.314687     0.837826
   si1_1   Si     0.041090     0.350940     0.798768
   si1_1   Si     0.009158     0.351171     0.788335
   si1_1   Si     0.012166     0.297389     0.777943
   si1_1   Si     0.126708     0.037343     0.998537
   si1_1   Si     0.080794     0.007638     0.994182
   si1_1   Si     0.122741     0.097443     0.975949
   si1_1   Si     0.090809     0.097673     0.965516
   si1_1   Si     0.125748     0.043662     0.965557
   si1_1   Si     0.093817     0.043892     0.955124
   si1_1   Si     0.076827     0.067738     0.971593
   si1_1   Si     0.044895     0.067968     0.961160
   si1_1   Si     0.079834     0.013957     0.961202
   si1_1   Si     0.047902     0.014187     0.950769
   si1_1   Si     0.092857     0.050211     0.922144
   si1_1   Si     0.060925     0.050441     0.911711
   si1_1   Si     0.046943     0.020506     0.917789
   si1_1   Si     0.015011     0.020736     0.907355
   si1_1   Si     0.062973     0.002978     0.868339
   si1_1   Si     0.031041     0.003209     0.857906
   si1_1   Si     0.116726     0.205005     0.996732
   si1_1   Si     0.084794     0.205235     0.986299
   si1_1   Si     0.119734     0.151224     0.986340
   si1_1   Si     0.087802     0.151454     0.975907
   si1_1   Si     0.070812     0.175300     0.992376
   si1_1   Si     0.038880     0.175531     0.981943
   si1_1   Si     0.073819     0.121519     0.981985
   si1_1   Si     0.041888     0.121750     0.971552
   si1_1   Si     0.086842     0.157773     0.942927
   si1_1   Si     0.054910     0.158003     0.932494
   si1_1   Si     0.089850     0.103992     0.932535
   si1_1   Si     0.057918     0.104222     0.922102
   si1_1   Si     0.040928     0.128068     0.938572
   si1_1   Si     0.008996     0.128299     0.928139
   si1_1   Si     0.043935     0.074287     0.928180
   si1_1   Si     0.012004     0.074517     0.917747
   si1_1   Si     0.056958     0.110541     0.889122
   si1_1   Si     0.025026     0.110771     0.878689
   si1_1   Si     0.059966     0.056760     0.878731
   si1_1   Si     0.028034     0.056990     0.868298
   si1_1   Si     0.011044     0.080836     0.884767
   si1_1   Si     0.014052     0.027055     0.874375
   si1_1   Si     0.027074     0.063309     0.835317
   si1_1   Si     0.081787     0.259016     0.996690
   si1_1   Si     0.035873     0.229312     0.992335
   si1_1   Si     0.080827     0.265335     0.963710
   si1_1   Si     0.048896     0.265565     0.953277
   si1_1   Si     0.083835     0.211554     0.953318
   si1_1   Si     0.051903     0.211784     0.942885
   si1_1   Si     0.034913     0.235631     0.959355
   si1_1   Si     0.002981     0.235861     0.948922
   si1_1   Si     0.037921     0.181849     0.948963
   si1_1   Si     0.005989     0.182080     0.938530
   si1_1   Si     0.050943     0.218103     0.909905
   si1_1   Si     0.019012     0.218333     0.899472
   si1_1   Si     0.053951     0.164322     0.899514
   si1_1   Si     0.022019     0.164552     0.889081
   si1_1   Si     0.005029     0.188398     0.905550
   si1_1   Si     0.008037     0.134617     0.895158
   si1_1   Si     0.021059     0.170871     0.856100
   si1_1   Si     0.024067     0.117090     0.845709
   si1_1   Si     0.042881     0.373128     0.974060
   si1_1   Si     0.077820     0.319116     0.974102
   si1_1   Si     0.045888     0.319347     0.963669
   si1_1   Si     0.028898     0.343193     0.980138
   si1_1   Si     0.031906     0.289412     0.969746
   si1_1   Si     0.999974     0.289642     0.959313
   si1_1   Si     0.044929     0.325665     0.930688
   si1_1   Si     0.012997     0.325896     0.920255
   si1_1   Si     0.047936     0.271884     0.920297
   si1_1   Si     0.016004     0.272114     0.909864
   si1_1   Si     0.002022     0.242180     0.915942
   si1_1   Si     0.015045     0.278433     0.876884
   si1_1   Si     0.018052     0.224652     0.866492
   si1_1   Si     0.041921     0.379446     0.941080
   si1_1   Si     0.009989     0.379677     0.930647
   si1_1   Si     0.009030     0.385995     0.897667
   si1_1   Si     0.012037     0.332214     0.887275
   si1_1   Si     0.030913     0.038034     0.967238
   si1_1   Si     0.024898     0.145596     0.988021
   si1_1   Si     0.027905     0.091815     0.977630
   si1_1   Si     0.021890     0.199377     0.998413
   si1_1   Si     0.162607     0.977013     0.031559
   si1_1   Si     0.116693     0.947308     0.027204
   si1_1   Si     0.051741     0.988912     0.082689
   si1_1   Si     0.099703     0.971154     0.043673
   si1_1   Si     0.067771     0.971385     0.033240
   si1_1   Si     0.050781     0.995231     0.049709
   si1_1   Si     0.018849     0.995461     0.039276
   si1_1   Si     0.053789     0.941450     0.039318
   si1_1   Si     0.021857     0.941680     0.028885
   si1_1   Si     0.066811     0.977703     0.000260
   si1_1   Si     0.005827     0.959208     0.078334
   si1_1   Si     0.004867     0.965526     0.045354
   si1_1   Si     0.224551     0.989190     0.986465
   si1_1   Si     0.210569     0.959255     0.992542
   si1_1   Si     0.178637     0.959485     0.982109
   si1_1   Si     0.223592     0.995508     0.953484
   si1_1   Si     0.191660     0.995739     0.943051
   si1_1   Si     0.177677     0.965804     0.949129
   si1_1   Si     0.145746     0.966034     0.938696
   si1_1   Si     0.144786     0.972353     0.905716
   si1_1   Si     0.112854     0.972583     0.895283
   si1_1   Si     0.164655     0.929550     0.988187
   si1_1   Si     0.132723     0.929781     0.977754
   si1_1   Si     0.161647     0.983331     0.998579
   si1_1   Si     0.129715     0.983562     0.988146
   si1_1   Si     0.115733     0.953627     0.994223
   si1_1   Si     0.083801     0.953857     0.983790
   si1_1   Si     0.128756     0.989880     0.955165
   si1_1   Si     0.096824     0.990111     0.944732
   si1_1   Si     0.131763     0.936099     0.944774
   si1_1   Si     0.099831     0.936330     0.934341
   si1_1   Si     0.082842     0.960176     0.950810
   si1_1   Si     0.050910     0.960406     0.940377
   si1_1   Si     0.053917     0.906625     0.929986
   si1_1   Si     0.098872     0.942648     0.901361
   si1_1   Si     0.066940     0.942879     0.890928
   si1_1   Si     0.052958     0.912944     0.897005
   si1_1   Si     0.021026     0.913174     0.886572
   si1_1   Si     0.095864     0.996429     0.911752
   si1_1   Si     0.063933     0.996660     0.901319
   si1_1   Si     0.049950     0.966725     0.907397
   si1_1   Si     0.018019     0.966955     0.896964
   si1_1   Si     0.065980     0.949197     0.857947
   si1_1   Si     0.034049     0.949428     0.847514
   si1_1   Si     0.017059     0.973274     0.863984
   si1_1   Si     0.020066     0.919493     0.853592
   si1_1   Si     0.034880     0.977934     0.989827
   si1_1   Si     0.069819     0.923922     0.989868
   si1_1   Si     0.037887     0.924153     0.979435
   si1_1   Si     0.020897     0.947999     0.995904
   si1_1   Si     0.023905     0.894218     0.985513
   si1_1   Si     0.036927     0.930471     0.946455
   si1_1   Si     0.004996     0.930702     0.936022
   si1_1   Si     0.033920     0.984252     0.956847
   si1_1   Si     0.001988     0.984483     0.946413
   si1_1   Si     0.001029     0.990801     0.913433
   si1_1   Si     0.004036     0.937020     0.903042
   si1_1   Si     0.828599     0.011405     0.372755
   si1_1   Si     0.854385     0.032858     0.374597
   si1_1   Si     0.868795     0.035666     0.344381
   si1_1   Si     0.894581     0.057119     0.346224
   si1_1   Si     0.908992     0.059928     0.316008
   si1_1   Si     0.879951     0.005574     0.334455
   si1_1   Si     0.894362     0.008383     0.304239
   si1_1   Si     0.871830     0.019831     0.282108
   si1_1   Si     0.886240     0.022639     0.251892
   si1_1   Si     0.837923     0.012635     0.227918
   si1_1   Si     0.863709     0.034088     0.229761
   si1_1   Si     0.878119     0.036896     0.199545
   si1_1   Si     0.950801     0.004130     0.380560
   si1_1   Si     0.990997     0.028392     0.352186
   si1_1   Si     0.928269     0.015578     0.358428
   si1_1   Si     0.942679     0.018387     0.328213
   si1_1   Si     0.968466     0.039840     0.330055
   si1_1   Si     0.982876     0.042648     0.299839
   si1_1   Si     0.934778     0.081380     0.317850
   si1_1   Si     0.949188     0.084189     0.287634
   si1_1   Si     0.920148     0.029835     0.306081
   si1_1   Si     0.934558     0.032644     0.275866
   si1_1   Si     0.945714     0.002552     0.265939
   si1_1   Si     0.960125     0.005360     0.235723
   si1_1   Si     0.960344     0.054097     0.277708
   si1_1   Si     0.974755     0.056905     0.247492
   si1_1   Si     0.912027     0.044092     0.253734
   si1_1   Si     0.926437     0.046901     0.223518
   si1_1   Si     0.952223     0.068354     0.225361
   si1_1   Si     0.937593     0.016809     0.213592
   si1_1   Si     0.952003     0.019617     0.183376
   si1_1   Si     0.889275     0.006804     0.189618
   si1_1   Si     0.903686     0.009613     0.159403
   si1_1   Si     0.994032     0.012556     0.289913
   si1_1   Si     0.985911     0.026813     0.237566
   si1_1   Si     0.977790     0.041070     0.185218
   si1_1   Si     0.738879     0.000434     0.475034
   si1_1   Si     0.495753     0.017460     0.503112
   si1_1   Si     0.544412     0.035163     0.484993
   si1_1   Si     0.575672     0.002469     0.453955
   si1_1   Si     0.553938     0.003411     0.479553
   si1_1   Si     0.617316     0.008947     0.489073
   si1_1   Si     0.707619     0.033128     0.506072
   si1_1   Si     0.491418     0.068798     0.541629
   si1_1   Si     0.506136     0.056632     0.569268
   si1_1   Si     0.554795     0.074335     0.551149
   si1_1   Si     0.522678     0.036105     0.510591
   si1_1   Si     0.537396     0.023938     0.538230
   si1_1   Si     0.586056     0.041641     0.520111
   si1_1   Si     0.564322     0.042583     0.545709
   si1_1   Si     0.579040     0.030416     0.573348
   si1_1   Si     0.612981     0.060285     0.527590
   si1_1   Si     0.627699     0.048119     0.555229
   si1_1   Si     0.595582     0.009889     0.514672
   si1_1   Si     0.644242     0.027592     0.496552
   si1_1   Si     0.658960     0.015425     0.524191
   si1_1   Si     0.637226     0.016367     0.549790
   si1_1   Si     0.651944     0.004201     0.577429
   si1_1   Si     0.685885     0.034070     0.531671
   si1_1   Si     0.700603     0.021903     0.559309
   si1_1   Si     0.717145     0.001376     0.500633
   si1_1   Si     0.408817     0.021226     0.605506
   si1_1   Si     0.442758     0.051096     0.559748
   si1_1   Si     0.457476     0.038929     0.587387
   si1_1   Si     0.474019     0.018402     0.528711
   si1_1   Si     0.488737     0.006235     0.556349
   si1_1   Si     0.467003     0.007177     0.581948
   si1_1   Si     0.515662     0.024880     0.563829
   si1_1   Si     0.530380     0.012714     0.591468
   si1_1   Si     0.360158     0.003524     0.623626
   si1_1   Si     0.443615     0.122020     0.631344
   si1_1   Si     0.474876     0.089326     0.600306
   si1_1   Si     0.501801     0.107970     0.607785
   si1_1   Si     0.516519     0.095804     0.635424
   si1_1   Si     0.533062     0.075276     0.576747
   si1_1   Si     0.547780     0.063110     0.604386
   si1_1   Si     0.596439     0.080813     0.586267
   si1_1   Si     0.574705     0.081755     0.611866
   si1_1   Si     0.589423     0.069588     0.639504
   si1_1   Si     0.638083     0.087291     0.621385
   si1_1   Si     0.605965     0.049061     0.580828
   si1_1   Si     0.620683     0.036894     0.608466
   si1_1   Si     0.654625     0.066764     0.562708
   si1_1   Si     0.669343     0.054597     0.590347
   si1_1   Si     0.647609     0.055539     0.615946
   si1_1   Si     0.662327     0.043373     0.643585
   si1_1   Si     0.710986     0.061075     0.625465
   si1_1   Si     0.678869     0.022845     0.584908
   si1_1   Si     0.693587     0.010679     0.612547
   si1_1   Si     0.727529     0.040548     0.566789
   si1_1   Si     0.742247     0.028382     0.594428
   si1_1   Si     0.720513     0.029323     0.620026
   si1_1   Si     0.735231     0.017157     0.647665
   si1_1   Si     0.394956     0.104317     0.649463
   si1_1   Si     0.377557     0.053920     0.636544
   si1_1   Si     0.426216     0.071623     0.618425
   si1_1   Si     0.404482     0.072565     0.644024
   si1_1   Si     0.419200     0.060398     0.671663
   si1_1   Si     0.453142     0.090267     0.625905
   si1_1   Si     0.467860     0.078101     0.653543
   si1_1   Si     0.435743     0.039871     0.612986
   si1_1   Si     0.450461     0.027705     0.640625
   si1_1   Si     0.484402     0.057574     0.594867
   si1_1   Si     0.499120     0.045407     0.622505
   si1_1   Si     0.477386     0.046349     0.648104
   si1_1   Si     0.492104     0.034183     0.675743
   si1_1   Si     0.526046     0.064052     0.629985
   si1_1   Si     0.540764     0.051885     0.657624
   si1_1   Si     0.508646     0.013655     0.617066
   si1_1   Si     0.523364     0.001489     0.644705
   si1_1   Si     0.557306     0.031358     0.598947
   si1_1   Si     0.572024     0.019192     0.626586
   si1_1   Si     0.550290     0.020133     0.652184
   si1_1   Si     0.565008     0.007967     0.679823
   si1_1   Si     0.598949     0.037836     0.634065
   si1_1   Si     0.613667     0.025670     0.661704
   si1_1   Si     0.630210     0.005142     0.603027
   si1_1   Si     0.671853     0.011620     0.638145
   si1_1   Si     0.355823     0.054862     0.662143
   si1_1   Si     0.370541     0.042696     0.689782
   si1_1   Si     0.338424     0.004465     0.649224
   si1_1   Si     0.387083     0.022168     0.631105
   si1_1   Si     0.401801     0.010002     0.658744
   si1_1   Si     0.380067     0.010943     0.684343
   si1_1   Si     0.428727     0.028646     0.666223
   si1_1   Si     0.443445     0.016480     0.693862
   si1_1   Si     0.501630     0.002430     0.670304
   si1_1   Si     0.485259     0.128498     0.666462
   si1_1   Si     0.543445     0.114448     0.642903
   si1_1   Si     0.558163     0.102282     0.670542
   si1_1   Si     0.599806     0.108760     0.705660
   si1_1   Si     0.616349     0.088233     0.646984
   si1_1   Si     0.631067     0.076066     0.674623
   si1_1   Si     0.657992     0.094711     0.682102
   si1_1   Si     0.689252     0.062017     0.651064
   si1_1   Si     0.703970     0.049851     0.678703
   si1_1   Si     0.405339     0.143489     0.715619
   si1_1   Si     0.387940     0.093092     0.702700
   si1_1   Si     0.421882     0.122961     0.656942
   si1_1   Si     0.436600     0.110795     0.684581
   si1_1   Si     0.414866     0.111736     0.710180
   si1_1   Si     0.429584     0.099570     0.737819
   si1_1   Si     0.463525     0.129439     0.692061
   si1_1   Si     0.478243     0.117273     0.719699
   si1_1   Si     0.446126     0.079043     0.679142
   si1_1   Si     0.460844     0.066876     0.706781
   si1_1   Si     0.494785     0.096745     0.661023
   si1_1   Si     0.509503     0.084579     0.688662
   si1_1   Si     0.487769     0.085521     0.714260
   si1_1   Si     0.502487     0.073355     0.741899
   si1_1   Si     0.536429     0.103224     0.696141
   si1_1   Si     0.551147     0.091057     0.723780
   si1_1   Si     0.519030     0.052827     0.683222
   si1_1   Si     0.533748     0.040661     0.710861
   si1_1   Si     0.567689     0.070530     0.665103
   si1_1   Si     0.582407     0.058364     0.692742
   si1_1   Si     0.560673     0.059305     0.718340
   si1_1   Si     0.575391     0.047139     0.745979
   si1_1   Si     0.609333     0.077008     0.700221
   si1_1   Si     0.624051     0.064842     0.727860
   si1_1   Si     0.591934     0.026611     0.687303
   si1_1   Si     0.606652     0.014445     0.714941
   si1_1   Si     0.640593     0.044314     0.669183
   si1_1   Si     0.655311     0.032148     0.696822
   si1_1   Si     0.633577     0.033089     0.722421
   si1_1   Si     0.648295     0.020923     0.750059
   si1_1   Si     0.682237     0.050792     0.704301
   si1_1   Si     0.696955     0.038626     0.731940
   si1_1   Si     0.664837     0.000396     0.691383
   si1_1   Si     0.713497     0.018098     0.673264
   si1_1   Si     0.728215     0.005932     0.700902
   si1_1   Si     0.706481     0.006874     0.726501
   si1_1   Si     0.380924     0.081867     0.755938
   si1_1   Si     0.348807     0.043637     0.715380
   si1_1   Si     0.363525     0.031471     0.743019
   si1_1   Si     0.397466     0.061340     0.697261
   si1_1   Si     0.412184     0.049174     0.724900
   si1_1   Si     0.390450     0.050115     0.750499
   si1_1   Si     0.405168     0.037949     0.778137
   si1_1   Si     0.439110     0.067818     0.732379
   si1_1   Si     0.453828     0.055652     0.760018
   si1_1   Si     0.421711     0.017421     0.719461
   si1_1   Si     0.436429     0.005255     0.747099
   si1_1   Si     0.470370     0.035124     0.701341
   si1_1   Si     0.485088     0.022958     0.728980
   si1_1   Si     0.463354     0.023900     0.754579
   si1_1   Si     0.478072     0.011733     0.782218
   si1_1   Si     0.512014     0.041602     0.736460
   si1_1   Si     0.526732     0.029436     0.764098
   si1_1   Si     0.543274     0.008909     0.705422
   si1_1   Si     0.584918     0.015387     0.740540
   si1_1   Si     0.599636     0.003220     0.768179
   si1_1   Si     0.341791     0.032412     0.768618
   si1_1   Si     0.356509     0.020246     0.796257
   si1_1   Si     0.414695     0.006197     0.772698
   si1_1   Si     0.398323     0.132264     0.768857
   si1_1   Si     0.446983     0.149967     0.750737
   si1_1   Si     0.439967     0.138742     0.803975
   si1_1   Si     0.488626     0.156445     0.785856
   si1_1   Si     0.456509     0.118215     0.745298
   si1_1   Si     0.471227     0.106048     0.772937
   si1_1   Si     0.505169     0.135917     0.727179
   si1_1   Si     0.519887     0.123751     0.754818
   si1_1   Si     0.498153     0.124693     0.780416
   si1_1   Si     0.512871     0.112526     0.808055
   si1_1   Si     0.546812     0.142395     0.762297
   si1_1   Si     0.561530     0.130229     0.789936
   si1_1   Si     0.529413     0.091999     0.749378
   si1_1   Si     0.544131     0.079833     0.777017
   si1_1   Si     0.578072     0.109702     0.731259
   si1_1   Si     0.592790     0.097535     0.758898
   si1_1   Si     0.571057     0.098477     0.784497
   si1_1   Si     0.585775     0.086311     0.812135
   si1_1   Si     0.602317     0.065783     0.753459
   si1_1   Si     0.617035     0.053617     0.781097
   si1_1   Si     0.650976     0.083486     0.735339
   si1_1   Si     0.675221     0.039568     0.757539
   si1_1   Si     0.391307     0.121039     0.822094
   si1_1   Si     0.359190     0.082809     0.781536
   si1_1   Si     0.373908     0.070643     0.809175
   si1_1   Si     0.407850     0.100512     0.763417
   si1_1   Si     0.422568     0.088346     0.791056
   si1_1   Si     0.400834     0.089287     0.816655
   si1_1   Si     0.415552     0.077121     0.844293
   si1_1   Si     0.449493     0.106990     0.798535
   si1_1   Si     0.464211     0.094824     0.826174
   si1_1   Si     0.432094     0.056593     0.785617
   si1_1   Si     0.446812     0.044427     0.813256
   si1_1   Si     0.480754     0.074296     0.767498
   si1_1   Si     0.495472     0.062130     0.795136
   si1_1   Si     0.473738     0.063071     0.820735
   si1_1   Si     0.488456     0.050905     0.848374
   si1_1   Si     0.522397     0.080774     0.802616
   si1_1   Si     0.537115     0.068608     0.830255
   si1_1   Si     0.504998     0.030378     0.789697
   si1_1   Si     0.519716     0.018211     0.817336
   si1_1   Si     0.553657     0.048080     0.771578
   si1_1   Si     0.568375     0.035914     0.799217
   si1_1   Si     0.546641     0.036856     0.824815
   si1_1   Si     0.561359     0.024689     0.852454
   si1_1   Si     0.595301     0.054559     0.806696
   si1_1   Si     0.610019     0.042392     0.834335
   si1_1   Si     0.577902     0.004162     0.793777
   si1_1   Si     0.626561     0.021865     0.775658
   si1_1   Si     0.641279     0.009699     0.803297
   si1_1   Si     0.619545     0.010640     0.828896
   si1_1   Si     0.352174     0.071584     0.834774
   si1_1   Si     0.366892     0.059418     0.862413
   si1_1   Si     0.334775     0.021188     0.821855
   si1_1   Si     0.349493     0.009021     0.849494
   si1_1   Si     0.383435     0.038891     0.803736
   si1_1   Si     0.398153     0.026724     0.831375
   si1_1   Si     0.376419     0.027666     0.856973
   si1_1   Si     0.391137     0.015500     0.884612
   si1_1   Si     0.425078     0.045369     0.838854
   si1_1   Si     0.439796     0.033202     0.866493
   si1_1   Si     0.456338     0.012675     0.807816
   si1_1   Si     0.471056     0.000509     0.835455
   si1_1   Si     0.449323     0.001450     0.861054
   si1_1   Si     0.497982     0.019153     0.842934
   si1_1   Si     0.512700     0.006987     0.870573
   si1_1   Si     0.327759     0.009963     0.875093
   si1_1   Si     0.481610     0.145220     0.839093
   si1_1   Si     0.539796     0.131171     0.815534
   si1_1   Si     0.384292     0.109815     0.875331
   si1_1   Si     0.432951     0.127517     0.857212
   si1_1   Si     0.425935     0.116293     0.910450
   si1_1   Si     0.474595     0.133996     0.892330
   si1_1   Si     0.442477     0.095765     0.851773
   si1_1   Si     0.457195     0.083599     0.879412
   si1_1   Si     0.491137     0.113468     0.833654
   si1_1   Si     0.505855     0.101302     0.861292
   si1_1   Si     0.484121     0.102243     0.886891
   si1_1   Si     0.498839     0.090077     0.914530
   si1_1   Si     0.532780     0.119946     0.868772
   si1_1   Si     0.515381     0.069550     0.855853
   si1_1   Si     0.530099     0.057383     0.883492
   si1_1   Si     0.564041     0.087252     0.837734
   si1_1   Si     0.578759     0.075086     0.865373
   si1_1   Si     0.557025     0.076028     0.890971
   si1_1   Si     0.588285     0.043334     0.859933
   si1_1   Si     0.603003     0.031168     0.887572
   si1_1   Si     0.345158     0.060360     0.888011
   si1_1   Si     0.359876     0.048193     0.915650
   si1_1   Si     0.393818     0.078062     0.869892
   si1_1   Si     0.408536     0.065896     0.897531
   si1_1   Si     0.386802     0.066838     0.923130
   si1_1   Si     0.401520     0.054671     0.950768
   si1_1   Si     0.435461     0.084541     0.905010
   si1_1   Si     0.450179     0.072374     0.932649
   si1_1   Si     0.418062     0.034144     0.892092
   si1_1   Si     0.432780     0.021978     0.919730
   si1_1   Si     0.466722     0.051847     0.873972
   si1_1   Si     0.481440     0.039680     0.901611
   si1_1   Si     0.459706     0.040622     0.927210
   si1_1   Si     0.474424     0.028456     0.954849
   si1_1   Si     0.508365     0.058325     0.909091
   si1_1   Si     0.523083     0.046159     0.936729
   si1_1   Si     0.490966     0.007928     0.896172
   si1_1   Si     0.539626     0.025631     0.878053
   si1_1   Si     0.554344     0.013465     0.905691
   si1_1   Si     0.532610     0.014406     0.931290
   si1_1   Si     0.547328     0.002240     0.958929
   si1_1   Si     0.581269     0.032109     0.913171
   si1_1   Si     0.369403     0.016441     0.910211
   si1_1   Si     0.384121     0.004275     0.937850
   si1_1   Si     0.362387     0.005216     0.963448
   si1_1   Si     0.411046     0.022919     0.945329
   si1_1   Si     0.425764     0.010753     0.972968
   si1_1   Si     0.428446     0.073316     0.958248
   si1_1   Si     0.477105     0.091019     0.940128
   si1_1   Si     0.501349     0.047100     0.962328
   si1_1   Si     0.516067     0.034934     0.989967
   si1_1   Si     0.452690     0.029397     0.980447
   si1_1   Si     0.525594     0.003182     0.984527
   si1_1   Si     0.182488     0.014392     0.448897
   si1_1   Si     0.226372     0.007043     0.416809
   si1_1   Si     0.282324     0.005880     0.493597
   si1_1   Si     0.232406     0.010136     0.471247
   si1_1   Si     0.276290     0.002787     0.439160
   si1_1   Si     0.308850     0.010014     0.435140
   si1_1   Si     0.264966     0.017364     0.467228
   si1_1   Si     0.352734     0.002665     0.403053
   si1_1   Si     0.338275     0.004718     0.570385
   si1_1   Si     0.332241     0.001624     0.515948
   si1_1   Si     0.288357     0.008974     0.548035
   si1_1   Si     0.320917     0.016201     0.544016
   si1_1   Si     0.270999     0.020457     0.521665
   si1_1   Si     0.408685     0.001502     0.479841
   si1_1   Si     0.364801     0.008852     0.511928
   si1_1   Si     0.358768     0.005758     0.457491
   si1_1   Si     0.314883     0.013108     0.489578
   si1_1   Si     0.344308     0.007811     0.624823
   si1_1   Si     0.370835     0.011945     0.566366
   si1_1   Si     0.326951     0.019295     0.598453
   si1_1   Si     0.462481     0.030534     0.499870
   si1_1   Si     0.414719     0.004596     0.534279
   si1_1   Si     0.506365     0.023185     0.467783
   si1_1   Si     0.460616     0.304392     0.006155
   si1_1   Si     0.493983     0.374381     0.003510
   si1_1   Si     0.526653     0.380490     0.008398
   si1_1   Si     0.527350     0.444371     0.000865
   si1_1   Si     0.560020     0.450479     0.005753
   si1_1   Si     0.563744     0.471193     0.031938
   si1_1   Si     0.609374     0.491583     0.009319
   si1_1   Si     0.593387     0.520469     0.003109
   si1_1   Si     0.597111     0.541182     0.029293
   si1_1   Si     0.642741     0.561572     0.006675
   si1_1   Si     0.626755     0.590458     0.000464
   si1_1   Si     0.366330     0.306779     0.017675
   si1_1   Si     0.399697     0.376768     0.015031
   si1_1   Si     0.433064     0.446758     0.012386
   si1_1   Si     0.466431     0.516747     0.009742
   si1_1   Si     0.499798     0.586737     0.007097
   si1_1   Si     0.533165     0.656726     0.004453
   si1_1   Si     0.411263     0.263288     0.002589
   si1_1   Si     0.414986     0.284002     0.028773
   si1_1   Si     0.399000     0.312888     0.022563
   si1_1   Si     0.402724     0.333601     0.048748
   si1_1   Si     0.444630     0.333278     0.999944
   si1_1   Si     0.448354     0.353991     0.026129
   si1_1   Si     0.435394     0.339710     0.053636
   si1_1   Si     0.432367     0.382877     0.019919
   si1_1   Si     0.436091     0.403590     0.046103
   si1_1   Si     0.481024     0.360100     0.031017
   si1_1   Si     0.481721     0.423980     0.023484
   si1_1   Si     0.468761     0.409699     0.050991
   si1_1   Si     0.472485     0.430412     0.077176
   si1_1   Si     0.465734     0.452867     0.017274
   si1_1   Si     0.469458     0.473580     0.043459
   si1_1   Si     0.514391     0.430089     0.028372
   si1_1   Si     0.518115     0.450802     0.054557
   si1_1   Si     0.515088     0.493970     0.020840
   si1_1   Si     0.502128     0.479688     0.048347
   si1_1   Si     0.505852     0.500402     0.074531
   si1_1   Si     0.499101     0.522856     0.014630
   si1_1   Si     0.502825     0.543569     0.040814
   si1_1   Si     0.547758     0.500079     0.025728
   si1_1   Si     0.551482     0.520792     0.051912
   si1_1   Si     0.548455     0.563959     0.018195
   si1_1   Si     0.535495     0.549678     0.045702
   si1_1   Si     0.539219     0.570391     0.071887
   si1_1   Si     0.532468     0.592845     0.011985
   si1_1   Si     0.536192     0.613559     0.038170
   si1_1   Si     0.581125     0.570068     0.023083
   si1_1   Si     0.584849     0.590781     0.049268
   si1_1   Si     0.581822     0.633949     0.015551
   si1_1   Si     0.568862     0.619667     0.043058
   si1_1   Si     0.572586     0.640381     0.069242
   si1_1   Si     0.571889     0.576500     0.076775
   si1_1   Si     0.617519     0.596890     0.054156
   si1_1   Si     0.284306     0.259567     0.009222
   si1_1   Si     0.268320     0.288453     0.003012
   si1_1   Si     0.272044     0.309166     0.029196
   si1_1   Si     0.316976     0.265676     0.014110
   si1_1   Si     0.317673     0.329556     0.006577
   si1_1   Si     0.304714     0.315275     0.034084
   si1_1   Si     0.308438     0.335988     0.060269
   si1_1   Si     0.301687     0.358443     0.000367
   si1_1   Si     0.305411     0.379156     0.026552
   si1_1   Si     0.350343     0.335665     0.011465
   si1_1   Si     0.354067     0.356378     0.037650
   si1_1   Si     0.351040     0.399546     0.003933
   si1_1   Si     0.338081     0.385264     0.031440
   si1_1   Si     0.341805     0.405978     0.057624
   si1_1   Si     0.338778     0.449145     0.023907
   si1_1   Si     0.383711     0.405655     0.008821
   si1_1   Si     0.387434     0.426368     0.035005
   si1_1   Si     0.384408     0.469535     0.001288
   si1_1   Si     0.371448     0.455254     0.028795
   si1_1   Si     0.375172     0.475967     0.054980
   si1_1   Si     0.372145     0.519135     0.021262
   si1_1   Si     0.417078     0.475644     0.006176
   si1_1   Si     0.420802     0.496357     0.032361
   si1_1   Si     0.404815     0.525243     0.026150
   si1_1   Si     0.408539     0.545957     0.052335
   si1_1   Si     0.405512     0.589124     0.018618
   si1_1   Si     0.450445     0.545633     0.003531
   si1_1   Si     0.454169     0.566347     0.029716
   si1_1   Si     0.438182     0.595233     0.023506
   si1_1   Si     0.441906     0.615946     0.049690
   si1_1   Si     0.438879     0.659114     0.015973
   si1_1   Si     0.483812     0.615623     0.000887
   si1_1   Si     0.487536     0.636336     0.027072
   si1_1   Si     0.471549     0.665222     0.020861
   si1_1   Si     0.475273     0.685935     0.047046
   si1_1   Si     0.472246     0.729103     0.013329
   si1_1   Si     0.341108     0.342097     0.065157
   si1_1   Si     0.386737     0.362487     0.042538
   si1_1   Si     0.390461     0.383200     0.068722
   si1_1   Si     0.374475     0.412086     0.062512
   si1_1   Si     0.378199     0.432800     0.088697
   si1_1   Si     0.423131     0.389309     0.073610
   si1_1   Si     0.420104     0.432476     0.039893
   si1_1   Si     0.423828     0.453190     0.066078
   si1_1   Si     0.410869     0.438908     0.093585
   si1_1   Si     0.414593     0.459621     0.119769
   si1_1   Si     0.407842     0.482076     0.059867
   si1_1   Si     0.411566     0.502789     0.086052
   si1_1   Si     0.456498     0.459298     0.070966
   si1_1   Si     0.460222     0.480012     0.097150
   si1_1   Si     0.453472     0.502466     0.037249
   si1_1   Si     0.457196     0.523179     0.063433
   si1_1   Si     0.444236     0.508898     0.090940
   si1_1   Si     0.447960     0.529611     0.117125
   si1_1   Si     0.441209     0.552065     0.057223
   si1_1   Si     0.444933     0.572778     0.083408
   si1_1   Si     0.489866     0.529288     0.068321
   si1_1   Si     0.493590     0.550001     0.094506
   si1_1   Si     0.486839     0.572455     0.034604
   si1_1   Si     0.490563     0.593169     0.060789
   si1_1   Si     0.477603     0.578887     0.088295
   si1_1   Si     0.481327     0.599600     0.114480
   si1_1   Si     0.474576     0.622055     0.054578
   si1_1   Si     0.478300     0.642768     0.080763
   si1_1   Si     0.523233     0.599277     0.065677
   si1_1   Si     0.526957     0.619990     0.091861
   si1_1   Si     0.520206     0.642445     0.031959
   si1_1   Si     0.523930     0.663158     0.058144
   si1_1   Si     0.510970     0.648877     0.085651
   si1_1   Si     0.507943     0.692044     0.051934
   si1_1   Si     0.556600     0.669267     0.063032
   si1_1   Si     0.480630     0.535720     0.122013
   si1_1   Si     0.526260     0.556110     0.099394
   si1_1   Si     0.559627     0.626099     0.096749
   si1_1   Si     0.174034     0.290840     0.014532
   si1_1   Si     0.174731     0.354721     0.007000
   si1_1   Si     0.223387     0.331944     0.018098
   si1_1   Si     0.207401     0.360830     0.011888
   si1_1   Si     0.211125     0.381543     0.038072
   si1_1   Si     0.208098     0.424711     0.004355
   si1_1   Si     0.256754     0.401933     0.015453
   si1_1   Si     0.240768     0.430819     0.009243
   si1_1   Si     0.244492     0.451533     0.035428
   si1_1   Si     0.241465     0.494700     0.001711
   si1_1   Si     0.290121     0.471923     0.012809
   si1_1   Si     0.274135     0.500809     0.006599
   si1_1   Si     0.277859     0.521522     0.032783
   si1_1   Si     0.323488     0.541912     0.010164
   si1_1   Si     0.307502     0.570798     0.003954
   si1_1   Si     0.311226     0.591511     0.030139
   si1_1   Si     0.356856     0.611901     0.007520
   si1_1   Si     0.340869     0.640788     0.001310
   si1_1   Si     0.344593     0.661501     0.027494
   si1_1   Si     0.390223     0.681891     0.004875
   si1_1   Si     0.377960     0.731490     0.024850
   si1_1   Si     0.423590     0.751880     0.002231
   si1_1   Si     0.210428     0.317662     0.045605
   si1_1   Si     0.256057     0.338052     0.022986
   si1_1   Si     0.259781     0.358766     0.049170
   si1_1   Si     0.243795     0.387652     0.042960
   si1_1   Si     0.247519     0.408365     0.069145
   si1_1   Si     0.292451     0.364874     0.054058
   si1_1   Si     0.296175     0.385588     0.080243
   si1_1   Si     0.289424     0.408042     0.020341
   si1_1   Si     0.293148     0.428755     0.046526
   si1_1   Si     0.280189     0.414474     0.074033
   si1_1   Si     0.283913     0.435187     0.100217
   si1_1   Si     0.277162     0.457641     0.040316
   si1_1   Si     0.280886     0.478354     0.066500
   si1_1   Si     0.325818     0.434864     0.051414
   si1_1   Si     0.329542     0.455577     0.077598
   si1_1   Si     0.322791     0.478031     0.017697
   si1_1   Si     0.326515     0.498745     0.043881
   si1_1   Si     0.313556     0.484463     0.071388
   si1_1   Si     0.317280     0.505176     0.097573
   si1_1   Si     0.310529     0.527631     0.037671
   si1_1   Si     0.314253     0.548344     0.063856
   si1_1   Si     0.359185     0.504853     0.048769
   si1_1   Si     0.362909     0.525566     0.074954
   si1_1   Si     0.356159     0.548021     0.015052
   si1_1   Si     0.359882     0.568734     0.041237
   si1_1   Si     0.346923     0.554453     0.068744
   si1_1   Si     0.350647     0.575166     0.094928
   si1_1   Si     0.343896     0.597620     0.035027
   si1_1   Si     0.347620     0.618333     0.061211
   si1_1   Si     0.392552     0.574843     0.046125
   si1_1   Si     0.396276     0.595556     0.072309
   si1_1   Si     0.389526     0.618010     0.012408
   si1_1   Si     0.393250     0.638723     0.038592
   si1_1   Si     0.380290     0.624442     0.066099
   si1_1   Si     0.377263     0.667609     0.032382
   si1_1   Si     0.380987     0.688323     0.058567
   si1_1   Si     0.425920     0.644832     0.043480
   si1_1   Si     0.429644     0.665545     0.069665
   si1_1   Si     0.422893     0.688000     0.009763
   si1_1   Si     0.426617     0.708713     0.035948
   si1_1   Si     0.413657     0.694431     0.063455
   si1_1   Si     0.410630     0.737599     0.029738
   si1_1   Si     0.459287     0.714821     0.040836
   si1_1   Si     0.328845     0.391696     0.085131
   si1_1   Si     0.332569     0.412409     0.111316
   si1_1   Si     0.316583     0.441296     0.105105
   si1_1   Si     0.320307     0.462009     0.131290
   si1_1   Si     0.365239     0.418518     0.116204
   si1_1   Si     0.362212     0.461686     0.082486
   si1_1   Si     0.365936     0.482399     0.108671
   si1_1   Si     0.352977     0.468117     0.136178
   si1_1   Si     0.349950     0.511285     0.102461
   si1_1   Si     0.398606     0.488508     0.113559
   si1_1   Si     0.395579     0.531675     0.079842
   si1_1   Si     0.399303     0.552388     0.106026
   si1_1   Si     0.383317     0.581274     0.099816
   si1_1   Si     0.431973     0.558497     0.110914
   si1_1   Si     0.428946     0.601665     0.077197
   si1_1   Si     0.462314     0.671654     0.074553
   si1_1   Si     0.113811     0.427098     0.015876
   si1_1   Si     0.147179     0.497087     0.013231
   si1_1   Si     0.180546     0.567077     0.010587
   si1_1   Si     0.213913     0.637066     0.007942
   si1_1   Si     0.247280     0.707056     0.005298
   si1_1   Si     0.280647     0.777045     0.002653
   si1_1   Si     0.125377     0.313618     0.003434
   si1_1   Si     0.158744     0.383607     0.000790
   si1_1   Si     0.162468     0.404320     0.026974
   si1_1   Si     0.146482     0.433207     0.020764
   si1_1   Si     0.195138     0.410429     0.031862
   si1_1   Si     0.198862     0.431142     0.058047
   si1_1   Si     0.195835     0.474310     0.024330
   si1_1   Si     0.182876     0.460028     0.051837
   si1_1   Si     0.179849     0.503196     0.018119
   si1_1   Si     0.183573     0.523909     0.044304
   si1_1   Si     0.228505     0.480419     0.029218
   si1_1   Si     0.232229     0.501132     0.055402
   si1_1   Si     0.229202     0.544299     0.021685
   si1_1   Si     0.216243     0.530018     0.049192
   si1_1   Si     0.219967     0.550731     0.075377
   si1_1   Si     0.213216     0.573185     0.015475
   si1_1   Si     0.216940     0.593899     0.041659
   si1_1   Si     0.261872     0.550408     0.026573
   si1_1   Si     0.265596     0.571121     0.052758
   si1_1   Si     0.262569     0.614289     0.019041
   si1_1   Si     0.249610     0.600007     0.046547
   si1_1   Si     0.253334     0.620721     0.072732
   si1_1   Si     0.246583     0.643175     0.012830
   si1_1   Si     0.250307     0.663888     0.039015
   si1_1   Si     0.295239     0.620397     0.023929
   si1_1   Si     0.298963     0.641111     0.050113
   si1_1   Si     0.295936     0.684278     0.016396
   si1_1   Si     0.282977     0.669997     0.043903
   si1_1   Si     0.279950     0.713164     0.010186
   si1_1   Si     0.283674     0.733878     0.036370
   si1_1   Si     0.328607     0.690387     0.021284
   si1_1   Si     0.332330     0.711100     0.047469
   si1_1   Si     0.329304     0.754268     0.013751
   si1_1   Si     0.316344     0.739986     0.041258
   si1_1   Si     0.313317     0.783154     0.007541
   si1_1   Si     0.361974     0.760376     0.018639
   si1_1   Si     0.231532     0.437251     0.062935
   si1_1   Si     0.235256     0.457964     0.089119
   si1_1   Si     0.219270     0.486850     0.082909
   si1_1   Si     0.267926     0.464073     0.094007
   si1_1   Si     0.264899     0.507240     0.060290
   si1_1   Si     0.268623     0.527954     0.086475
   si1_1   Si     0.252637     0.556840     0.080265
   si1_1   Si     0.301293     0.534062     0.091363
   si1_1   Si     0.298266     0.577230     0.057646
   si1_1   Si     0.301990     0.597943     0.083830
   si1_1   Si     0.286004     0.626829     0.077620
   si1_1   Si     0.334660     0.604052     0.088718
   si1_1   Si     0.331633     0.647219     0.055001
   si1_1   Si     0.365000     0.717209     0.052357
   si1_1   Si     0.304320     0.490895     0.125080
   si1_1   Si     0.097825     0.455984     0.009666
   si1_1   Si     0.098522     0.519865     0.002133
   si1_1   Si     0.131192     0.525973     0.007021
   si1_1   Si     0.134916     0.546687     0.033206
   si1_1   Si     0.118930     0.575573     0.026996
   si1_1   Si     0.164559     0.595963     0.004377
   si1_1   Si     0.168283     0.616676     0.030561
   si1_1   Si     0.197926     0.665952     0.001732
   si1_1   Si     0.201650     0.686666     0.027917
   si1_1   Si     0.134219     0.482806     0.040738
   si1_1   Si     0.167586     0.552795     0.038094
   si1_1   Si     0.171310     0.573509     0.064278
   si1_1   Si     0.155324     0.602395     0.058068
   si1_1   Si     0.203980     0.579617     0.069166
   si1_1   Si     0.200953     0.622785     0.035449
   si1_1   Si     0.204677     0.643498     0.061634
   si1_1   Si     0.234320     0.692774     0.032805
   si1_1   Si     0.267687     0.762764     0.030160
   si1_1   Si     0.647612     0.598764     0.000132
   si1_1   Si     0.720516     0.572549     0.004213
   si1_1   Si     0.390795     0.804420     0.009649
   si1_1   Si     0.463699     0.778204     0.013729
   si1_1   Si     0.536603     0.751989     0.017809
   si1_1   Si     0.609507     0.725773     0.021890
   si1_1   Si     0.658166     0.743476     0.003770
   si1_1   Si     0.682410     0.699557     0.025970
   si1_1   Si     0.731070     0.717260     0.007851
   si1_1   Si     0.740596     0.685508     0.002411
   si1_1   Si     0.473225     0.746452     0.008290
   si1_1   Si     0.487943     0.734286     0.035929
   si1_1   Si     0.519204     0.701592     0.004891
   si1_1   Si     0.546129     0.720237     0.012370
   si1_1   Si     0.560847     0.708070     0.040009
   si1_1   Si     0.592107     0.675377     0.008971
   si1_1   Si     0.570374     0.676318     0.034570
   si1_1   Si     0.585092     0.664152     0.062208
   si1_1   Si     0.619033     0.694021     0.016450
   si1_1   Si     0.633751     0.681855     0.044089
   si1_1   Si     0.601634     0.643624     0.003532
   si1_1   Si     0.616352     0.631458     0.031170
   si1_1   Si     0.665011     0.649161     0.013051
   si1_1   Si     0.643277     0.650102     0.038650
   si1_1   Si     0.691937     0.667805     0.020531
   si1_1   Si     0.674538     0.617409     0.007612
   si1_1   Si     0.689256     0.605242     0.035251
   si1_1   Si     0.595816     0.914403     0.003328
   si1_1   Si     0.668720     0.888188     0.007408
   si1_1   Si     0.401349     0.949132     0.013287
   si1_1   Si     0.383950     0.898735     0.000368
   si1_1   Si     0.410876     0.917380     0.007847
   si1_1   Si     0.425594     0.905213     0.035486
   si1_1   Si     0.474253     0.922916     0.017367
   si1_1   Si     0.456854     0.872519     0.004448
   si1_1   Si     0.483779     0.891164     0.011928
   si1_1   Si     0.498497     0.878998     0.039566
   si1_1   Si     0.547157     0.896700     0.021447
   si1_1   Si     0.529758     0.846304     0.008528
   si1_1   Si     0.556683     0.864948     0.016008
   si1_1   Si     0.571401     0.852782     0.043647
   si1_1   Si     0.620061     0.870485     0.025527
   si1_1   Si     0.602661     0.820088     0.012609
   si1_1   Si     0.629587     0.838733     0.020088
   si1_1   Si     0.644305     0.826566     0.047727
   si1_1   Si     0.678247     0.856435     0.001969
   si1_1   Si     0.692965     0.844269     0.029608
   si1_1   Si     0.675565     0.793872     0.016689
   si1_1   Si     0.702491     0.812517     0.024168
   si1_1   Si     0.408194     0.854817     0.022567
   si1_1   Si     0.435120     0.873461     0.030047
   si1_1   Si     0.417721     0.823064     0.017128
   si1_1   Si     0.481098     0.828601     0.026648
   si1_1   Si     0.508024     0.847245     0.034127
   si1_1   Si     0.522742     0.835079     0.061766
   si1_1   Si     0.490625     0.796849     0.021208
   si1_1   Si     0.505343     0.784683     0.048847
   si1_1   Si     0.539284     0.814552     0.003089
   si1_1   Si     0.554002     0.802385     0.030728
   si1_1   Si     0.532268     0.803327     0.056327
   si1_1   Si     0.580928     0.821030     0.038207
   si1_1   Si     0.595646     0.808863     0.065846
   si1_1   Si     0.563528     0.770633     0.025289
   si1_1   Si     0.578246     0.758467     0.052927
   si1_1   Si     0.612188     0.788336     0.007169
   si1_1   Si     0.626906     0.776170     0.034808
   si1_1   Si     0.605172     0.777111     0.060407
   si1_1   Si     0.619890     0.764945     0.088046
   si1_1   Si     0.653831     0.794814     0.042288
   si1_1   Si     0.668549     0.782648     0.069926
   si1_1   Si     0.636432     0.744417     0.029369
   si1_1   Si     0.651150     0.732251     0.057008
   si1_1   Si     0.685092     0.762120     0.011250
   si1_1   Si     0.699810     0.749954     0.038889
   si1_1   Si     0.709336     0.718202     0.033449
   si1_1   Si     0.441965     0.779146     0.039328
   si1_1   Si     0.514869     0.752930     0.043408
   si1_1   Si     0.529587     0.740764     0.071047
   si1_1   Si     0.556512     0.759408     0.078526
   si1_1   Si     0.539113     0.709012     0.065607
   si1_1   Si     0.587773     0.726715     0.047488
   si1_1   Si     0.602491     0.714548     0.075127
   si1_1   Si     0.629416     0.733193     0.082606
   si1_1   Si     0.612017     0.682796     0.069688
   si1_1   Si     0.660677     0.700499     0.051568
   si1_1   Si     0.476934     0.985479     0.002647
   si1_1   Si     0.491652     0.973313     0.030286
   si1_1   Si     0.540312     0.991015     0.012166
   si1_1   Si     0.549838     0.959263     0.006727
   si1_1   Si     0.564556     0.947097     0.034366
   si1_1   Si     0.622742     0.933048     0.010807
   si1_1   Si     0.428275     0.967776     0.020766
   si1_1   Si     0.452519     0.923858     0.042965
   si1_1   Si     0.501179     0.941560     0.024846
   si1_1   Si     0.515897     0.929394     0.052485
   si1_1   Si     0.525423     0.897642     0.047046
   si1_1   Si     0.540141     0.885476     0.074685
   si1_1   Si     0.574082     0.915345     0.028927
   si1_1   Si     0.588800     0.903178     0.056565
   si1_1   Si     0.567067     0.904120     0.082164
   si1_1   Si     0.598327     0.871426     0.051126
   si1_1   Si     0.613045     0.859260     0.078765
   si1_1   Si     0.646986     0.889129     0.033007
   si1_1   Si     0.661704     0.876963     0.060646
   si1_1   Si     0.639970     0.877904     0.086244
   si1_1   Si     0.671231     0.845211     0.055206
   si1_1   Si     0.549667     0.853723     0.069245
   si1_1   Si     0.573912     0.809805     0.091445
   si1_1   Si     0.622571     0.827508     0.073326
   si1_1   Si     0.982951     0.055791     0.006255
   si1_1   Si     0.976936     0.163354     0.027038
   si1_1   Si     0.979943     0.109573     0.016646
   si1_1   Si     0.970921     0.270916     0.047821
   si1_1   Si     0.973928     0.217135     0.037429
   si1_1   Si     0.972969     0.223454     0.004449
   si1_1   Si     0.980936     0.360951     0.019154
   si1_1   Si     0.983944     0.307170     0.008763
   si1_1   Si     0.966954     0.331016     0.025232
   si1_1   Si     0.935022     0.331246     0.014799
   si1_1   Si     0.969961     0.277235     0.014841
   si1_1   Si     0.938030     0.277465     0.004408
   si1_1   Si     0.932015     0.385027     0.025191
   si1_1   Si     0.986789     0.030516     0.138175
   si1_1   Si     0.980774     0.138079     0.158958
   si1_1   Si     0.983782     0.084298     0.148567
   si1_1   Si     0.996804     0.120551     0.109509
   si1_1   Si     0.999812     0.066770     0.099117
   si1_1   Si     0.982822     0.090616     0.115587
   si1_1   Si     0.950890     0.090847     0.105154
   si1_1   Si     0.985829     0.036835     0.105195
   si1_1   Si     0.953898     0.037065     0.094762
   si1_1   Si     0.998852     0.073089     0.066137
   si1_1   Si     0.966920     0.073319     0.055704
   si1_1   Si     0.969928     0.019538     0.045313
   si1_1   Si     0.952938     0.043384     0.061782
   si1_1   Si     0.921006     0.043614     0.051349
   si1_1   Si     0.968968     0.025857     0.012332
   si1_1   Si     0.937037     0.026087     0.001899
   si1_1   Si     0.993797     0.174332     0.119900
   si1_1   Si     0.976807     0.198179     0.136370
   si1_1   Si     0.944875     0.198409     0.125937
   si1_1   Si     0.979815     0.144397     0.125978
   si1_1   Si     0.947883     0.144628     0.115545
   si1_1   Si     0.992837     0.180651     0.086920
   si1_1   Si     0.960906     0.180881     0.076487
   si1_1   Si     0.995845     0.126870     0.076529
   si1_1   Si     0.963913     0.127100     0.066096
   si1_1   Si     0.946923     0.150946     0.082565
   si1_1   Si     0.914991     0.151177     0.072132
   si1_1   Si     0.949931     0.097165     0.072173
   si1_1   Si     0.917999     0.097396     0.061740
   si1_1   Si     0.962953     0.133419     0.033115
   si1_1   Si     0.931022     0.133649     0.022682
   si1_1   Si     0.965961     0.079638     0.022724
   si1_1   Si     0.934029     0.079868     0.012291
   si1_1   Si     0.917039     0.103714     0.028760
   si1_1   Si     0.885108     0.103945     0.018327
   si1_1   Si     0.920047     0.049933     0.018369
   si1_1   Si     0.888115     0.050163     0.007936
   si1_1   Si     0.989830     0.234432     0.097312
   si1_1   Si     0.957898     0.234662     0.086879
   si1_1   Si     0.940908     0.258509     0.103348
   si1_1   Si     0.908977     0.258739     0.092915
   si1_1   Si     0.943916     0.204728     0.092957
   si1_1   Si     0.911984     0.204958     0.082524
   si1_1   Si     0.956939     0.240981     0.053899
   si1_1   Si     0.925007     0.241211     0.043466
   si1_1   Si     0.959946     0.187200     0.043507
   si1_1   Si     0.928014     0.187430     0.033074
   si1_1   Si     0.911024     0.211277     0.049543
   si1_1   Si     0.879093     0.211507     0.039110
   si1_1   Si     0.914032     0.157495     0.039152
   si1_1   Si     0.882100     0.157726     0.028719
   si1_1   Si     0.927055     0.193749     0.000094
   si1_1   Si     0.953931     0.294762     0.064290
   si1_1   Si     0.921999     0.294993     0.053857
   si1_1   Si     0.905010     0.318839     0.070326
   si1_1   Si     0.873078     0.319069     0.059893
   si1_1   Si     0.908017     0.265058     0.059935
   si1_1   Si     0.876085     0.265288     0.049502
   si1_1   Si     0.921040     0.301311     0.020877
   si1_1   Si     0.889108     0.301542     0.010444
   si1_1   Si     0.924047     0.247530     0.010485
   si1_1   Si     0.892115     0.247760     0.000052
   si1_1   Si     0.875126     0.271607     0.016522
   si1_1   Si     0.843194     0.271837     0.006089
   si1_1   Si     0.878133     0.217826     0.006130
   si1_1   Si     0.883093     0.409104     0.031227
   si1_1   Si     0.918032     0.355092     0.031268
   si1_1   Si     0.886101     0.355323     0.020835
   si1_1   Si     0.869111     0.379169     0.037305
   si1_1   Si     0.837179     0.379399     0.026872
   si1_1   Si     0.872118     0.325388     0.026913
   si1_1   Si     0.840186     0.325618     0.016480
   si1_1   Si     0.833212     0.439499     0.004283
   si1_1   Si     0.798273     0.493511     0.004242
   si1_1   Si     0.940875     0.000812     0.133820
   si1_1   Si     0.967751     0.101825     0.198016
   si1_1   Si     0.918830     0.125902     0.204053
   si1_1   Si     0.921837     0.072121     0.193661
   si1_1   Si     0.966792     0.108144     0.165036
   si1_1   Si     0.934860     0.108374     0.154603
   si1_1   Si     0.969799     0.054363     0.154645
   si1_1   Si     0.937867     0.054593     0.144212
   si1_1   Si     0.920878     0.078439     0.160681
   si1_1   Si     0.888946     0.078670     0.150248
   si1_1   Si     0.923885     0.024658     0.150289
   si1_1   Si     0.891953     0.024888     0.139856
   si1_1   Si     0.936908     0.060912     0.111231
   si1_1   Si     0.904976     0.061142     0.100798
   si1_1   Si     0.939915     0.007131     0.100840
   si1_1   Si     0.907984     0.007361     0.090407
   si1_1   Si     0.890994     0.031207     0.106876
   si1_1   Si     0.859062     0.031437     0.096443
   si1_1   Si     0.907024     0.013680     0.057427
   si1_1   Si     0.875092     0.013910     0.046994
   si1_1   Si     0.931853     0.162155     0.164995
   si1_1   Si     0.917870     0.132220     0.171072
   si1_1   Si     0.885938     0.132451     0.160639
   si1_1   Si     0.930893     0.168474     0.132015
   si1_1   Si     0.898961     0.168704     0.121581
   si1_1   Si     0.933900     0.114693     0.121623
   si1_1   Si     0.901969     0.114923     0.111190
   si1_1   Si     0.884979     0.138769     0.127659
   si1_1   Si     0.853047     0.139000     0.117226
   si1_1   Si     0.887986     0.084988     0.117268
   si1_1   Si     0.856055     0.085219     0.106835
   si1_1   Si     0.901009     0.121242     0.078210
   si1_1   Si     0.869077     0.121472     0.067777
   si1_1   Si     0.904017     0.067461     0.067818
   si1_1   Si     0.872085     0.067691     0.057385
   si1_1   Si     0.855095     0.091537     0.073854
   si1_1   Si     0.823163     0.091768     0.063421
   si1_1   Si     0.858102     0.037756     0.063463
   si1_1   Si     0.826171     0.037986     0.053030
   si1_1   Si     0.871125     0.074010     0.024405
   si1_1   Si     0.839193     0.074240     0.013972
   si1_1   Si     0.874133     0.020229     0.014013
   si1_1   Si     0.842201     0.020459     0.003580
   si1_1   Si     0.825211     0.044305     0.020050
   si1_1   Si     0.793279     0.044535     0.009617
   si1_1   Si     0.927886     0.222255     0.142406
   si1_1   Si     0.895954     0.222485     0.131973
   si1_1   Si     0.881971     0.192551     0.138051
   si1_1   Si     0.850040     0.192781     0.127618
   si1_1   Si     0.894994     0.228804     0.098993
   si1_1   Si     0.863062     0.229034     0.088560
   si1_1   Si     0.898002     0.175023     0.088601
   si1_1   Si     0.866070     0.175253     0.078168
   si1_1   Si     0.849080     0.199100     0.094638
   si1_1   Si     0.817148     0.199330     0.084205
   si1_1   Si     0.852088     0.145318     0.084246
   si1_1   Si     0.820156     0.145549     0.073813
   si1_1   Si     0.865110     0.181572     0.045188
   si1_1   Si     0.833179     0.181802     0.034755
   si1_1   Si     0.868118     0.127791     0.034797
   si1_1   Si     0.836186     0.128021     0.024363
   si1_1   Si     0.819196     0.151867     0.040833
   si1_1   Si     0.787264     0.152098     0.030400
   si1_1   Si     0.822204     0.098086     0.030441
   si1_1   Si     0.790272     0.098317     0.020008
   si1_1   Si     0.891987     0.282585     0.109384
   si1_1   Si     0.860055     0.282816     0.098951
   si1_1   Si     0.846073     0.252881     0.105029
   si1_1   Si     0.814141     0.253111     0.094596
   si1_1   Si     0.859095     0.289134     0.065971
   si1_1   Si     0.827164     0.289365     0.055538
   si1_1   Si     0.862103     0.235353     0.055580
   si1_1   Si     0.830171     0.235583     0.045147
   si1_1   Si     0.813181     0.259430     0.061616
   si1_1   Si     0.781250     0.259660     0.051183
   si1_1   Si     0.816189     0.205649     0.051224
   si1_1   Si     0.784257     0.205879     0.040791
   si1_1   Si     0.829212     0.241902     0.012166
   si1_1   Si     0.797280     0.242132     0.001733
   si1_1   Si     0.832219     0.188121     0.001775
   si1_1   Si     0.783297     0.212198     0.007811
   si1_1   Si     0.856088     0.342915     0.076363
   si1_1   Si     0.824156     0.343146     0.065930
   si1_1   Si     0.810174     0.313211     0.072008
   si1_1   Si     0.823197     0.349464     0.032950
   si1_1   Si     0.791265     0.349695     0.022516
   si1_1   Si     0.826204     0.295683     0.022558
   si1_1   Si     0.794272     0.295914     0.012125
   si1_1   Si     0.777283     0.319760     0.028594
   si1_1   Si     0.745351     0.319990     0.018161
   si1_1   Si     0.780290     0.265979     0.018203
   si1_1   Si     0.748358     0.266209     0.007770
   si1_1   Si     0.820189     0.403246     0.043341
   si1_1   Si     0.788258     0.403476     0.032908
   si1_1   Si     0.787298     0.409795     0.999928
   si1_1   Si     0.784291     0.463576     0.010319
   si1_1   Si     0.875923     0.042416     0.189306
   si1_1   Si     0.874964     0.048735     0.156326
   si1_1   Si     0.843032     0.048965     0.145893
   si1_1   Si     0.829049     0.019030     0.151970
   si1_1   Si     0.797118     0.019260     0.141537
   si1_1   Si     0.845080     0.001503     0.102521
   si1_1   Si     0.813148     0.001733     0.092088
   si1_1   Si     0.871956     0.102516     0.166717
   si1_1   Si     0.840024     0.102746     0.156284
   si1_1   Si     0.839065     0.109065     0.123304
   si1_1   Si     0.807133     0.109295     0.112871
   si1_1   Si     0.842072     0.055284     0.112912
   si1_1   Si     0.810140     0.055514     0.102479
   si1_1   Si     0.793151     0.079360     0.118949
   si1_1   Si     0.761219     0.079591     0.108516
   si1_1   Si     0.796158     0.025579     0.108557
   si1_1   Si     0.764226     0.025809     0.098124
   si1_1   Si     0.809181     0.061833     0.069499
   si1_1   Si     0.777249     0.062063     0.059066
   si1_1   Si     0.812188     0.008052     0.059108
   si1_1   Si     0.780256     0.008282     0.048675
   si1_1   Si     0.763267     0.032128     0.065144
   si1_1   Si     0.731335     0.032358     0.054711
   si1_1   Si     0.779297     0.014601     0.015694
   si1_1   Si     0.747365     0.014831     0.005261
   si1_1   Si     0.836057     0.162846     0.133696
   si1_1   Si     0.803166     0.169395     0.090282
   si1_1   Si     0.771234     0.169625     0.079849
   si1_1   Si     0.806173     0.115614     0.079891
   si1_1   Si     0.774242     0.115844     0.069458
   si1_1   Si     0.757252     0.139690     0.085927
   si1_1   Si     0.760259     0.085909     0.075536
   si1_1   Si     0.728327     0.086140     0.065103
   si1_1   Si     0.773282     0.122163     0.036478
   si1_1   Si     0.741350     0.122393     0.026045
   si1_1   Si     0.776289     0.068382     0.026086
   si1_1   Si     0.744358     0.068612     0.015653
   si1_1   Si     0.727368     0.092458     0.032122
   si1_1   Si     0.695436     0.092689     0.021689
   si1_1   Si     0.730375     0.038677     0.021731
   si1_1   Si     0.698443     0.038907     0.011298
   si1_1   Si     0.767267     0.229725     0.057261
   si1_1   Si     0.735335     0.229955     0.046828
   si1_1   Si     0.770275     0.175944     0.046869
   si1_1   Si     0.738343     0.176174     0.036436
   si1_1   Si     0.721353     0.200021     0.052905
   si1_1   Si     0.724360     0.146239     0.042514
   si1_1   Si     0.692429     0.146470     0.032081
   si1_1   Si     0.737383     0.182493     0.003456
   si1_1   Si     0.731368     0.290055     0.024239
   si1_1   Si     0.734376     0.236274     0.013847
   si1_1   Si     0.702444     0.236504     0.003414
   si1_1   Si     0.688462     0.206570     0.009492
   si1_1   Si     0.747236     0.049656     0.114594
   si1_1   Si     0.717352     0.002424     0.060789
   si1_1   Si     0.685421     0.002654     0.050356
   si1_1   Si     0.714345     0.056205     0.071180
   si1_1   Si     0.682413     0.056435     0.060747
   si1_1   Si     0.668431     0.026500     0.066825
   si1_1   Si     0.681454     0.062754     0.027767
   si1_1   Si     0.649522     0.062984     0.017334
   si1_1   Si     0.684461     0.008973     0.017376
   si1_1   Si     0.652529     0.009203     0.006942
   si1_1   Si     0.635540     0.033049     0.023412
   si1_1   Si     0.603608     0.033280     0.012979
   si1_1   Si     0.678446     0.116535     0.038159
   si1_1   Si     0.646514     0.116765     0.027726
   si1_1   Si     0.642547     0.176865     0.005137
   si1_1   Si     0.589625     0.003345     0.019057
   si1_1   Si     0.044144     0.593449     0.030254
   si1_1   Si     0.016907     0.635546     0.007997
   si1_1   Si     0.062782     0.665619     0.008737
   si1_1   Si     0.008093     0.699130     0.003835
   si1_1   Si     0.053967     0.729203     0.004575
   si1_1   Si     0.016403     0.535877     0.022917
   si1_1   Si     0.043855     0.544463     0.005561
   si1_1   Si     0.035040     0.608047     0.001400
   si1_1   Si     0.090019     0.623522     0.030994
   si1_1   Si     0.135894     0.653594     0.031734
   si1_1   Si     0.108657     0.695692     0.009477
   si1_1   Si     0.154532     0.725765     0.010217
   si1_1   Si     0.099842     0.759276     0.005315
   si1_1   Si     0.145717     0.789349     0.006055
   si1_1   Si     0.173459     0.846921     0.013393
   si1_1   Si     0.062278     0.565949     0.023657
   si1_1   Si     0.089730     0.574535     0.006301
   si1_1   Si     0.108153     0.596022     0.024397
   si1_1   Si     0.135605     0.604608     0.007041
   si1_1   Si     0.080915     0.638120     0.002140
   si1_1   Si     0.126790     0.668193     0.002880
   si1_1   Si     0.181769     0.683667     0.032474
   si1_1   Si     0.172955     0.747252     0.028312
   si1_1   Si     0.200407     0.755838     0.010957
   si1_1   Si     0.218830     0.777324     0.029052
   si1_1   Si     0.246282     0.785910     0.011697
   si1_1   Si     0.191592     0.819422     0.006796
   si1_1   Si     0.219334     0.876994     0.014133
   si1_1   Si     0.237467     0.849495     0.007536
   si1_1   Si     0.154028     0.626095     0.025137
   si1_1   Si     0.172665     0.698265     0.003620
   si1_1   Si     0.218540     0.728338     0.004360
   si1_1   Si     0.376269     0.370869     0.563303
   si1_1   Si     0.373243     0.414037     0.529586
   si1_1   Si     0.409637     0.440858     0.560658
   si1_1   Si     0.406610     0.484026     0.526941
   si1_1   Si     0.443004     0.510848     0.558014
   si1_1   Si     0.382323     0.284534     0.630737
   si1_1   Si     0.379296     0.327701     0.597020
   si1_1   Si     0.411966     0.333810     0.601908
   si1_1   Si     0.415690     0.354523     0.628092
   si1_1   Si     0.412663     0.397691     0.594375
   si1_1   Si     0.449057     0.424513     0.625448
   si1_1   Si     0.446030     0.467680     0.591731
   si1_1   Si     0.482424     0.494502     0.622803
   si1_1   Si     0.384653     0.177486     0.671986
   si1_1   Si     0.388377     0.198199     0.698171
   si1_1   Si     0.385350     0.241366     0.664454
   si1_1   Si     0.418020     0.247475     0.669342
   si1_1   Si     0.421744     0.268188     0.695527
   si1_1   Si     0.414993     0.290643     0.635625
   si1_1   Si     0.418717     0.311356     0.661809
   si1_1   Si     0.451387     0.317464     0.666697
   si1_1   Si     0.455111     0.338178     0.692882
   si1_1   Si     0.452084     0.381345     0.659165
   si1_1   Si     0.488478     0.408167     0.690237
   si1_1   Si     0.485451     0.451335     0.656520
   si1_1   Si     0.391404     0.155031     0.731888
   si1_1   Si     0.424074     0.161140     0.736776
   si1_1   Si     0.427798     0.181853     0.762961
   si1_1   Si     0.421047     0.204308     0.703059
   si1_1   Si     0.424771     0.225021     0.729244
   si1_1   Si     0.457441     0.231129     0.734132
   si1_1   Si     0.461165     0.251843     0.760316
   si1_1   Si     0.454414     0.274297     0.700414
   si1_1   Si     0.458138     0.295010     0.726599
   si1_1   Si     0.494532     0.321832     0.757672
   si1_1   Si     0.491505     0.365000     0.723955
   si1_1   Si     0.527899     0.391822     0.755027
   si1_1   Si     0.524872     0.434989     0.721310
   si1_1   Si     0.467219     0.165508     0.827750
   si1_1   Si     0.460468     0.187962     0.767849
   si1_1   Si     0.464192     0.208675     0.794033
   si1_1   Si     0.496862     0.214784     0.798921
   si1_1   Si     0.500586     0.235497     0.825106
   si1_1   Si     0.493835     0.257951     0.765204
   si1_1   Si     0.497559     0.278665     0.791389
   si1_1   Si     0.533953     0.305486     0.822461
   si1_1   Si     0.530926     0.348654     0.788744
   si1_1   Si     0.567320     0.375476     0.819817
   si1_1   Si     0.499889     0.171616     0.832638
   si1_1   Si     0.503613     0.192330     0.858823
   si1_1   Si     0.533256     0.241606     0.829994
   si1_1   Si     0.536980     0.262319     0.856178
   si1_1   Si     0.573374     0.289141     0.887251
   si1_1   Si     0.570347     0.332308     0.853534
   si1_1   Si     0.606741     0.359130     0.884606
   si1_1   Si     0.278956     0.416424     0.541106
   si1_1   Si     0.285010     0.330089     0.608541
   si1_1   Si     0.281983     0.373256     0.574824
   si1_1   Si     0.330640     0.350479     0.585922
   si1_1   Si     0.327613     0.393646     0.552205
   si1_1   Si     0.314653     0.379365     0.579711
   si1_1   Si     0.318377     0.400078     0.605896
   si1_1   Si     0.311626     0.422532     0.545994
   si1_1   Si     0.315350     0.443246     0.572179
   si1_1   Si     0.360283     0.399755     0.557093
   si1_1   Si     0.364007     0.420468     0.583277
   si1_1   Si     0.357256     0.442923     0.523375
   si1_1   Si     0.360980     0.463636     0.549560
   si1_1   Si     0.348020     0.449354     0.577067
   si1_1   Si     0.351744     0.470068     0.603252
   si1_1   Si     0.344993     0.492522     0.543350
   si1_1   Si     0.348717     0.513235     0.569534
   si1_1   Si     0.393650     0.469745     0.554448
   si1_1   Si     0.397374     0.490458     0.580633
   si1_1   Si     0.381387     0.519344     0.574422
   si1_1   Si     0.385111     0.540057     0.600607
   si1_1   Si     0.427017     0.539734     0.551803
   si1_1   Si     0.430741     0.560447     0.577988
   si1_1   Si     0.414755     0.589333     0.571778
   si1_1   Si     0.418478     0.610047     0.597962
   si1_1   Si     0.291064     0.243754     0.675975
   si1_1   Si     0.284313     0.266208     0.616073
   si1_1   Si     0.288037     0.286921     0.642258
   si1_1   Si     0.336693     0.264144     0.653356
   si1_1   Si     0.333667     0.307311     0.619639
   si1_1   Si     0.320707     0.293030     0.647146
   si1_1   Si     0.324431     0.313743     0.673330
   si1_1   Si     0.317680     0.336197     0.613429
   si1_1   Si     0.321404     0.356911     0.639613
   si1_1   Si     0.366337     0.313420     0.624527
   si1_1   Si     0.370061     0.334133     0.650711
   si1_1   Si     0.363310     0.356588     0.590810
   si1_1   Si     0.367034     0.377301     0.616994
   si1_1   Si     0.354074     0.363019     0.644501
   si1_1   Si     0.357798     0.383733     0.670686
   si1_1   Si     0.351047     0.406187     0.610784
   si1_1   Si     0.354771     0.426900     0.636969
   si1_1   Si     0.399704     0.383409     0.621882
   si1_1   Si     0.403428     0.404123     0.648067
   si1_1   Si     0.396677     0.426577     0.588165
   si1_1   Si     0.400401     0.447290     0.614350
   si1_1   Si     0.387441     0.433009     0.641857
   si1_1   Si     0.391165     0.453722     0.668041
   si1_1   Si     0.384414     0.476176     0.608139
   si1_1   Si     0.388138     0.496890     0.634324
   si1_1   Si     0.433071     0.453399     0.619238
   si1_1   Si     0.436795     0.474112     0.645422
   si1_1   Si     0.430044     0.496566     0.585521
   si1_1   Si     0.433768     0.517280     0.611705
   si1_1   Si     0.420808     0.502998     0.639212
   si1_1   Si     0.424532     0.523711     0.665397
   si1_1   Si     0.417781     0.546166     0.605495
   si1_1   Si     0.421505     0.566879     0.631680
   si1_1   Si     0.466438     0.523388     0.616593
   si1_1   Si     0.470162     0.544102     0.642778
   si1_1   Si     0.463411     0.566556     0.582876
   si1_1   Si     0.454175     0.572988     0.636567
   si1_1   Si     0.457899     0.593701     0.662752
   si1_1   Si     0.339720     0.220976     0.687073
   si1_1   Si     0.326761     0.206695     0.714580
   si1_1   Si     0.330485     0.227408     0.740764
   si1_1   Si     0.323734     0.249862     0.680863
   si1_1   Si     0.327458     0.270576     0.707047
   si1_1   Si     0.372390     0.227085     0.691961
   si1_1   Si     0.376114     0.247798     0.718145
   si1_1   Si     0.369364     0.270252     0.658244
   si1_1   Si     0.373087     0.290966     0.684428
   si1_1   Si     0.360128     0.276684     0.711935
   si1_1   Si     0.363852     0.297398     0.738120
   si1_1   Si     0.357101     0.319852     0.678218
   si1_1   Si     0.360825     0.340565     0.704403
   si1_1   Si     0.405758     0.297074     0.689316
   si1_1   Si     0.409481     0.317788     0.715501
   si1_1   Si     0.402731     0.340242     0.655599
   si1_1   Si     0.406455     0.360955     0.681784
   si1_1   Si     0.393495     0.346674     0.709291
   si1_1   Si     0.397219     0.367387     0.735475
   si1_1   Si     0.390468     0.389841     0.675574
   si1_1   Si     0.394192     0.410554     0.701758
   si1_1   Si     0.439125     0.367064     0.686672
   si1_1   Si     0.442849     0.387777     0.712856
   si1_1   Si     0.436098     0.410231     0.652955
   si1_1   Si     0.439822     0.430945     0.679139
   si1_1   Si     0.426862     0.416663     0.706646
   si1_1   Si     0.430586     0.437376     0.732831
   si1_1   Si     0.423835     0.459831     0.672929
   si1_1   Si     0.427559     0.480544     0.699114
   si1_1   Si     0.472492     0.437053     0.684027
   si1_1   Si     0.476216     0.457767     0.710212
   si1_1   Si     0.469465     0.480221     0.650310
   si1_1   Si     0.473189     0.500934     0.676495
   si1_1   Si     0.460229     0.486653     0.704002
   si1_1   Si     0.463953     0.507366     0.730186
   si1_1   Si     0.457202     0.529820     0.670285
   si1_1   Si     0.460926     0.550533     0.696469
   si1_1   Si     0.505859     0.507043     0.681383
   si1_1   Si     0.509583     0.527756     0.707567
   si1_1   Si     0.502832     0.550210     0.647666
   si1_1   Si     0.506556     0.570923     0.673850
   si1_1   Si     0.493596     0.556642     0.701357
   si1_1   Si     0.497320     0.577355     0.727542
   si1_1   Si     0.333512     0.184241     0.774481
   si1_1   Si     0.382168     0.161463     0.785580
   si1_1   Si     0.375417     0.183917     0.725678
   si1_1   Si     0.379141     0.204631     0.751863
   si1_1   Si     0.366182     0.190349     0.779369
   si1_1   Si     0.369906     0.211062     0.805554
   si1_1   Si     0.363155     0.233517     0.745652
   si1_1   Si     0.366879     0.254230     0.771837
   si1_1   Si     0.411811     0.210739     0.756750
   si1_1   Si     0.415535     0.231453     0.782935
   si1_1   Si     0.408784     0.253907     0.723033
   si1_1   Si     0.412508     0.274620     0.749218
   si1_1   Si     0.399549     0.260339     0.776725
   si1_1   Si     0.403273     0.281052     0.802909
   si1_1   Si     0.396522     0.303506     0.743008
   si1_1   Si     0.400246     0.324219     0.769192
   si1_1   Si     0.445178     0.280729     0.754106
   si1_1   Si     0.448902     0.301442     0.780291
   si1_1   Si     0.442152     0.323896     0.720389
   si1_1   Si     0.445875     0.344610     0.746573
   si1_1   Si     0.432916     0.330328     0.774080
   si1_1   Si     0.436640     0.351041     0.800265
   si1_1   Si     0.429889     0.373496     0.740363
   si1_1   Si     0.433613     0.394209     0.766548
   si1_1   Si     0.478545     0.350718     0.751461
   si1_1   Si     0.482269     0.371431     0.777646
   si1_1   Si     0.475519     0.393886     0.717744
   si1_1   Si     0.479243     0.414599     0.743929
   si1_1   Si     0.466283     0.400317     0.771436
   si1_1   Si     0.470007     0.421031     0.797620
   si1_1   Si     0.463256     0.443485     0.737719
   si1_1   Si     0.466980     0.464198     0.763903
   si1_1   Si     0.511913     0.420708     0.748817
   si1_1   Si     0.515637     0.441421     0.775001
   si1_1   Si     0.508886     0.463875     0.715100
   si1_1   Si     0.512610     0.484588     0.741284
   si1_1   Si     0.499650     0.470307     0.768791
   si1_1   Si     0.503374     0.491020     0.794976
   si1_1   Si     0.496623     0.513474     0.735074
   si1_1   Si     0.500347     0.534188     0.761259
   si1_1   Si     0.545280     0.490697     0.746172
   si1_1   Si     0.549004     0.511410     0.772357
   si1_1   Si     0.542253     0.533865     0.712455
   si1_1   Si     0.545977     0.554578     0.738640
   si1_1   Si     0.533017     0.540296     0.766147
   si1_1   Si     0.536741     0.561010     0.792331
   si1_1   Si     0.375959     0.124727     0.872988
   si1_1   Si     0.369208     0.147182     0.813087
   si1_1   Si     0.372932     0.167895     0.839271
   si1_1   Si     0.421589     0.145118     0.850369
   si1_1   Si     0.414838     0.167572     0.790468
   si1_1   Si     0.418562     0.188285     0.816652
   si1_1   Si     0.405602     0.174004     0.844159
   si1_1   Si     0.409326     0.194717     0.870344
   si1_1   Si     0.402576     0.217171     0.810442
   si1_1   Si     0.406300     0.237884     0.836627
   si1_1   Si     0.451232     0.194394     0.821540
   si1_1   Si     0.454956     0.215107     0.847725
   si1_1   Si     0.448205     0.237561     0.787823
   si1_1   Si     0.451929     0.258274     0.814008
   si1_1   Si     0.438970     0.243993     0.841514
   si1_1   Si     0.442694     0.264706     0.867699
   si1_1   Si     0.435943     0.287161     0.807797
   si1_1   Si     0.439667     0.307874     0.833982
   si1_1   Si     0.484599     0.264383     0.818896
   si1_1   Si     0.488323     0.285096     0.845080
   si1_1   Si     0.481572     0.307551     0.785178
   si1_1   Si     0.485296     0.328264     0.811363
   si1_1   Si     0.472337     0.313982     0.838870
   si1_1   Si     0.476061     0.334696     0.865055
   si1_1   Si     0.469310     0.357150     0.805153
   si1_1   Si     0.473034     0.377863     0.831337
   si1_1   Si     0.517966     0.334373     0.816251
   si1_1   Si     0.521690     0.355086     0.842436
   si1_1   Si     0.514939     0.377540     0.782534
   si1_1   Si     0.518663     0.398253     0.808719
   si1_1   Si     0.505704     0.383972     0.836225
   si1_1   Si     0.509428     0.404685     0.862410
   si1_1   Si     0.502677     0.427139     0.802508
   si1_1   Si     0.506401     0.447853     0.828693
   si1_1   Si     0.551333     0.404362     0.813606
   si1_1   Si     0.555057     0.425075     0.839791
   si1_1   Si     0.548307     0.447530     0.779889
   si1_1   Si     0.552031     0.468243     0.806074
   si1_1   Si     0.539071     0.453961     0.833581
   si1_1   Si     0.542795     0.474675     0.859765
   si1_1   Si     0.536044     0.497129     0.799864
   si1_1   Si     0.539768     0.517842     0.826048
   si1_1   Si     0.584701     0.474351     0.810962
   si1_1   Si     0.588424     0.495065     0.837147
   si1_1   Si     0.581674     0.517519     0.777245
   si1_1   Si     0.585398     0.538232     0.803429
   si1_1   Si     0.572438     0.523951     0.830936
   si1_1   Si     0.576162     0.544664     0.857121
   si1_1   Si     0.569411     0.567118     0.797219
   si1_1   Si     0.408629     0.130836     0.877876
   si1_1   Si     0.412353     0.151549     0.904061
   si1_1   Si     0.454259     0.151226     0.855257
   si1_1   Si     0.457983     0.171939     0.881442
   si1_1   Si     0.445023     0.157658     0.908949
   si1_1   Si     0.448747     0.178371     0.935133
   si1_1   Si     0.441996     0.200825     0.875232
   si1_1   Si     0.445720     0.221539     0.901416
   si1_1   Si     0.490653     0.178048     0.886330
   si1_1   Si     0.494377     0.198761     0.912514
   si1_1   Si     0.487626     0.221216     0.852613
   si1_1   Si     0.491350     0.241929     0.878797
   si1_1   Si     0.478390     0.227647     0.906304
   si1_1   Si     0.482114     0.248361     0.932489
   si1_1   Si     0.475364     0.270815     0.872587
   si1_1   Si     0.479087     0.291528     0.898772
   si1_1   Si     0.524020     0.248037     0.883685
   si1_1   Si     0.527744     0.268751     0.909870
   si1_1   Si     0.520993     0.291205     0.849968
   si1_1   Si     0.524717     0.311918     0.876153
   si1_1   Si     0.511758     0.297637     0.903660
   si1_1   Si     0.515481     0.318350     0.929844
   si1_1   Si     0.508731     0.340804     0.869942
   si1_1   Si     0.512455     0.361518     0.896127
   si1_1   Si     0.557387     0.318027     0.881041
   si1_1   Si     0.561111     0.338740     0.907225
   si1_1   Si     0.554360     0.361194     0.847324
   si1_1   Si     0.558084     0.381908     0.873508
   si1_1   Si     0.545125     0.367626     0.901015
   si1_1   Si     0.548849     0.388340     0.927200
   si1_1   Si     0.542098     0.410794     0.867298
   si1_1   Si     0.545822     0.431507     0.893483
   si1_1   Si     0.590754     0.388016     0.878396
   si1_1   Si     0.594478     0.408730     0.904581
   si1_1   Si     0.587727     0.431184     0.844679
   si1_1   Si     0.591451     0.451897     0.870864
   si1_1   Si     0.578492     0.437616     0.898370
   si1_1   Si     0.582216     0.458329     0.924555
   si1_1   Si     0.575465     0.480783     0.864653
   si1_1   Si     0.579189     0.501496     0.890838
   si1_1   Si     0.624121     0.458006     0.875752
   si1_1   Si     0.627845     0.478719     0.901936
   si1_1   Si     0.621095     0.501173     0.842034
   si1_1   Si     0.624818     0.521887     0.868219
   si1_1   Si     0.611859     0.507605     0.895726
   si1_1   Si     0.615583     0.528318     0.921911
   si1_1   Si     0.608832     0.550773     0.862009
   si1_1   Si     0.657489     0.527995     0.873107
   si1_1   Si     0.514784     0.254469     0.937377
   si1_1   Si     0.560414     0.274859     0.914758
   si1_1   Si     0.548152     0.324459     0.934732
   si1_1   Si     0.551875     0.345172     0.960917
   si1_1   Si     0.593781     0.344849     0.912113
   si1_1   Si     0.597505     0.365562     0.938298
   si1_1   Si     0.581519     0.394448     0.932088
   si1_1   Si     0.585243     0.415161     0.958272
   si1_1   Si     0.627148     0.414838     0.909469
   si1_1   Si     0.630872     0.435552     0.935653
   si1_1   Si     0.617913     0.421270     0.963160
   si1_1   Si     0.614886     0.464438     0.929443
   si1_1   Si     0.618610     0.485151     0.955628
   si1_1   Si     0.663542     0.441660     0.940541
   si1_1   Si     0.660515     0.484828     0.906824
   si1_1   Si     0.664239     0.505541     0.933009
   si1_1   Si     0.651280     0.491260     0.960516
   si1_1   Si     0.655004     0.511973     0.986700
   si1_1   Si     0.648253     0.534427     0.926798
   si1_1   Si     0.651977     0.555140     0.952983
   si1_1   Si     0.187697     0.375644     0.586344
   si1_1   Si     0.233327     0.396034     0.563725
   si1_1   Si     0.217340     0.424920     0.557515
   si1_1   Si     0.221064     0.445633     0.583700
   si1_1   Si     0.266694     0.466023     0.561081
   si1_1   Si     0.254431     0.515622     0.581055
   si1_1   Si     0.190724     0.332476     0.620061
   si1_1   Si     0.239380     0.309699     0.631160
   si1_1   Si     0.236354     0.352866     0.597442
   si1_1   Si     0.223394     0.338585     0.624949
   si1_1   Si     0.227118     0.359298     0.651134
   si1_1   Si     0.220367     0.381752     0.591232
   si1_1   Si     0.224091     0.402465     0.617417
   si1_1   Si     0.269024     0.358975     0.602330
   si1_1   Si     0.272748     0.379688     0.628515
   si1_1   Si     0.265997     0.402142     0.568613
   si1_1   Si     0.269721     0.422856     0.594798
   si1_1   Si     0.256761     0.408574     0.622305
   si1_1   Si     0.260485     0.429287     0.648489
   si1_1   Si     0.253734     0.451742     0.588588
   si1_1   Si     0.257458     0.472455     0.614772
   si1_1   Si     0.302391     0.428964     0.599686
   si1_1   Si     0.306115     0.449678     0.625870
   si1_1   Si     0.299364     0.472132     0.565969
   si1_1   Si     0.303088     0.492845     0.592153
   si1_1   Si     0.290128     0.478564     0.619660
   si1_1   Si     0.293852     0.499277     0.645845
   si1_1   Si     0.287101     0.521731     0.585943
   si1_1   Si     0.290825     0.542444     0.612128
   si1_1   Si     0.335758     0.498954     0.597041
   si1_1   Si     0.339482     0.519667     0.623226
   si1_1   Si     0.332731     0.542121     0.563324
   si1_1   Si     0.336455     0.562834     0.589509
   si1_1   Si     0.323495     0.548553     0.617016
   si1_1   Si     0.327219     0.569266     0.643200
   si1_1   Si     0.324192     0.612434     0.609483
   si1_1   Si     0.369125     0.568943     0.594397
   si1_1   Si     0.372849     0.589656     0.620581
   si1_1   Si     0.356862     0.618542     0.614371
   si1_1   Si     0.360586     0.639256     0.640556
   si1_1   Si     0.233172     0.272963     0.718568
   si1_1   Si     0.226421     0.295417     0.658666
   si1_1   Si     0.230145     0.316130     0.684851
   si1_1   Si     0.275077     0.272640     0.669765
   si1_1   Si     0.278801     0.293353     0.695949
   si1_1   Si     0.272050     0.315807     0.636047
   si1_1   Si     0.275774     0.336521     0.662232
   si1_1   Si     0.262815     0.322239     0.689739
   si1_1   Si     0.266539     0.342952     0.715924
   si1_1   Si     0.259788     0.365407     0.656022
   si1_1   Si     0.263512     0.386120     0.682206
   si1_1   Si     0.308444     0.342629     0.667120
   si1_1   Si     0.312168     0.363342     0.693305
   si1_1   Si     0.305418     0.385797     0.633403
   si1_1   Si     0.309141     0.406510     0.659588
   si1_1   Si     0.296182     0.392229     0.687094
   si1_1   Si     0.299906     0.412942     0.713279
   si1_1   Si     0.293155     0.435396     0.653377
   si1_1   Si     0.296879     0.456109     0.679562
   si1_1   Si     0.341812     0.412619     0.664475
   si1_1   Si     0.345535     0.433332     0.690660
   si1_1   Si     0.338785     0.455786     0.630758
   si1_1   Si     0.342509     0.476499     0.656943
   si1_1   Si     0.329549     0.462218     0.684450
   si1_1   Si     0.333273     0.482931     0.710634
   si1_1   Si     0.326522     0.505385     0.650733
   si1_1   Si     0.330246     0.526099     0.676917
   si1_1   Si     0.375179     0.482608     0.661831
   si1_1   Si     0.378903     0.503321     0.688016
   si1_1   Si     0.372152     0.525776     0.628114
   si1_1   Si     0.375876     0.546489     0.654298
   si1_1   Si     0.362916     0.532207     0.681805
   si1_1   Si     0.366640     0.552921     0.707990
   si1_1   Si     0.359889     0.575375     0.648088
   si1_1   Si     0.363613     0.596088     0.674273
   si1_1   Si     0.408546     0.552598     0.659186
   si1_1   Si     0.412270     0.573311     0.685371
   si1_1   Si     0.405519     0.595765     0.625469
   si1_1   Si     0.409243     0.616478     0.651654
   si1_1   Si     0.396283     0.602197     0.679161
   si1_1   Si     0.400007     0.622910     0.705345
   si1_1   Si     0.393256     0.645364     0.645444
   si1_1   Si     0.396980     0.666078     0.671628
   si1_1   Si     0.441913     0.622587     0.656542
   si1_1   Si     0.284855     0.207018     0.763383
   si1_1   Si     0.281828     0.250185     0.729666
   si1_1   Si     0.268869     0.235904     0.757173
   si1_1   Si     0.272592     0.256617     0.783358
   si1_1   Si     0.265842     0.279072     0.723456
   si1_1   Si     0.269566     0.299785     0.749641
   si1_1   Si     0.314498     0.256294     0.734554
   si1_1   Si     0.318222     0.277007     0.760739
   si1_1   Si     0.311471     0.299462     0.700837
   si1_1   Si     0.315195     0.320175     0.727022
   si1_1   Si     0.302236     0.305893     0.754529
   si1_1   Si     0.305960     0.326607     0.780713
   si1_1   Si     0.299209     0.349061     0.720811
   si1_1   Si     0.302933     0.369774     0.746996
   si1_1   Si     0.347865     0.326284     0.731910
   si1_1   Si     0.351589     0.346997     0.758094
   si1_1   Si     0.344838     0.369451     0.698193
   si1_1   Si     0.348562     0.390164     0.724377
   si1_1   Si     0.335603     0.375883     0.751884
   si1_1   Si     0.339327     0.396596     0.778069
   si1_1   Si     0.332576     0.419050     0.718167
   si1_1   Si     0.336300     0.439764     0.744352
   si1_1   Si     0.381232     0.396273     0.729265
   si1_1   Si     0.384956     0.416986     0.755450
   si1_1   Si     0.378206     0.439441     0.695548
   si1_1   Si     0.381929     0.460154     0.721733
   si1_1   Si     0.368970     0.445872     0.749239
   si1_1   Si     0.372694     0.466586     0.775424
   si1_1   Si     0.365943     0.489040     0.715522
   si1_1   Si     0.369667     0.509753     0.741707
   si1_1   Si     0.414600     0.466262     0.726621
   si1_1   Si     0.418323     0.486976     0.752805
   si1_1   Si     0.411573     0.509430     0.692903
   si1_1   Si     0.415297     0.530143     0.719088
   si1_1   Si     0.402337     0.515862     0.746595
   si1_1   Si     0.406061     0.536575     0.772780
   si1_1   Si     0.399310     0.559029     0.712878
   si1_1   Si     0.403034     0.579743     0.739062
   si1_1   Si     0.447967     0.536252     0.723976
   si1_1   Si     0.451691     0.556965     0.750161
   si1_1   Si     0.444940     0.579419     0.690259
   si1_1   Si     0.448664     0.600133     0.716444
   si1_1   Si     0.435704     0.585851     0.743950
   si1_1   Si     0.439428     0.606564     0.770135
   si1_1   Si     0.432677     0.629019     0.710233
   si1_1   Si     0.436401     0.649732     0.736418
   si1_1   Si     0.481334     0.606241     0.721331
   si1_1   Si     0.278646     0.170282     0.850792
   si1_1   Si     0.275619     0.213450     0.817075
   si1_1   Si     0.320552     0.169959     0.801988
   si1_1   Si     0.324276     0.190672     0.828173
   si1_1   Si     0.317525     0.213127     0.768271
   si1_1   Si     0.321249     0.233840     0.794456
   si1_1   Si     0.308289     0.219558     0.821963
   si1_1   Si     0.312013     0.240272     0.848147
   si1_1   Si     0.305263     0.262726     0.788246
   si1_1   Si     0.308986     0.283439     0.814430
   si1_1   Si     0.353919     0.239949     0.799344
   si1_1   Si     0.357643     0.260662     0.825528
   si1_1   Si     0.350892     0.283116     0.765627
   si1_1   Si     0.354616     0.303829     0.791811
   si1_1   Si     0.341656     0.289548     0.819318
   si1_1   Si     0.345380     0.310261     0.845503
   si1_1   Si     0.338630     0.332715     0.785601
   si1_1   Si     0.342354     0.353429     0.811786
   si1_1   Si     0.387286     0.309938     0.796699
   si1_1   Si     0.391010     0.330651     0.822884
   si1_1   Si     0.384259     0.353105     0.762982
   si1_1   Si     0.387983     0.373819     0.789167
   si1_1   Si     0.375024     0.359537     0.816674
   si1_1   Si     0.378748     0.380251     0.842858
   si1_1   Si     0.371997     0.402705     0.782957
   si1_1   Si     0.375721     0.423418     0.809141
   si1_1   Si     0.420653     0.379927     0.794055
   si1_1   Si     0.424377     0.400641     0.820239
   si1_1   Si     0.417626     0.423095     0.760338
   si1_1   Si     0.421350     0.443808     0.786522
   si1_1   Si     0.408391     0.429527     0.814029
   si1_1   Si     0.412115     0.450240     0.840214
   si1_1   Si     0.405364     0.472694     0.780312
   si1_1   Si     0.409088     0.493407     0.806497
   si1_1   Si     0.454020     0.449917     0.791410
   si1_1   Si     0.457744     0.470630     0.817595
   si1_1   Si     0.450993     0.493084     0.757693
   si1_1   Si     0.454717     0.513798     0.783878
   si1_1   Si     0.441758     0.499516     0.811385
   si1_1   Si     0.445482     0.520229     0.837569
   si1_1   Si     0.438731     0.542684     0.777667
   si1_1   Si     0.442455     0.563397     0.803852
   si1_1   Si     0.487387     0.519906     0.788766
   si1_1   Si     0.491111     0.540620     0.814950
   si1_1   Si     0.484361     0.563074     0.755049
   si1_1   Si     0.488085     0.583787     0.781233
   si1_1   Si     0.475125     0.569506     0.808740
   si1_1   Si     0.478849     0.590219     0.834925
   si1_1   Si     0.472098     0.612673     0.775023
   si1_1   Si     0.475822     0.633386     0.801208
   si1_1   Si     0.520755     0.589896     0.786121
   si1_1   Si     0.524478     0.610609     0.812306
   si1_1   Si     0.327303     0.147505     0.861890
   si1_1   Si     0.314343     0.133223     0.889397
   si1_1   Si     0.318067     0.153937     0.915581
   si1_1   Si     0.311316     0.176391     0.855680
   si1_1   Si     0.315040     0.197104     0.881864
   si1_1   Si     0.359973     0.153613     0.866778
   si1_1   Si     0.363697     0.174327     0.892963
   si1_1   Si     0.356946     0.196781     0.833061
   si1_1   Si     0.360670     0.217494     0.859245
   si1_1   Si     0.347710     0.203213     0.886752
   si1_1   Si     0.351434     0.223926     0.912937
   si1_1   Si     0.344683     0.246380     0.853035
   si1_1   Si     0.348407     0.267094     0.879220
   si1_1   Si     0.393340     0.223603     0.864133
   si1_1   Si     0.397064     0.244316     0.890318
   si1_1   Si     0.390313     0.266770     0.830416
   si1_1   Si     0.394037     0.287484     0.856601
   si1_1   Si     0.381077     0.273202     0.884108
   si1_1   Si     0.384801     0.293915     0.910292
   si1_1   Si     0.378050     0.316370     0.850391
   si1_1   Si     0.381774     0.337083     0.876575
   si1_1   Si     0.426707     0.293592     0.861489
   si1_1   Si     0.430431     0.314306     0.887673
   si1_1   Si     0.423680     0.336760     0.827772
   si1_1   Si     0.427404     0.357473     0.853956
   si1_1   Si     0.414444     0.343192     0.881463
   si1_1   Si     0.418168     0.363905     0.907648
   si1_1   Si     0.411418     0.386359     0.847746
   si1_1   Si     0.415142     0.407072     0.873931
   si1_1   Si     0.460074     0.363582     0.858844
   si1_1   Si     0.463798     0.384295     0.885029
   si1_1   Si     0.457047     0.406749     0.825127
   si1_1   Si     0.460771     0.427463     0.851312
   si1_1   Si     0.447812     0.413181     0.878819
   si1_1   Si     0.451535     0.433894     0.905003
   si1_1   Si     0.444785     0.456349     0.845102
   si1_1   Si     0.448509     0.477062     0.871286
   si1_1   Si     0.493441     0.433571     0.856200
   si1_1   Si     0.497165     0.454284     0.882384
   si1_1   Si     0.490414     0.476739     0.822483
   si1_1   Si     0.494138     0.497452     0.848667
   si1_1   Si     0.481179     0.483171     0.876174
   si1_1   Si     0.484903     0.503884     0.902359
   si1_1   Si     0.478152     0.526338     0.842457
   si1_1   Si     0.481876     0.547051     0.868642
   si1_1   Si     0.526808     0.503561     0.853555
   si1_1   Si     0.530532     0.524274     0.879740
   si1_1   Si     0.523781     0.546728     0.819838
   si1_1   Si     0.527505     0.567441     0.846023
   si1_1   Si     0.514546     0.553160     0.873530
   si1_1   Si     0.518270     0.573873     0.899714
   si1_1   Si     0.511519     0.596327     0.839813
   si1_1   Si     0.515243     0.617041     0.865997
   si1_1   Si     0.560175     0.573550     0.850911
   si1_1   Si     0.563899     0.594263     0.877095
   si1_1   Si     0.363000     0.110446     0.900495
   si1_1   Si     0.366724     0.131159     0.926680
   si1_1   Si     0.350737     0.160045     0.920469
   si1_1   Si     0.354461     0.180758     0.946654
   si1_1   Si     0.399394     0.137268     0.931568
   si1_1   Si     0.396367     0.180435     0.897850
   si1_1   Si     0.400091     0.201149     0.924035
   si1_1   Si     0.387131     0.186867     0.951542
   si1_1   Si     0.390855     0.207580     0.977727
   si1_1   Si     0.384104     0.230035     0.917825
   si1_1   Si     0.387828     0.250748     0.944009
   si1_1   Si     0.432761     0.207257     0.928923
   si1_1   Si     0.436485     0.227971     0.955108
   si1_1   Si     0.429734     0.250425     0.895206
   si1_1   Si     0.433458     0.271138     0.921391
   si1_1   Si     0.420498     0.256857     0.948897
   si1_1   Si     0.424222     0.277570     0.975082
   si1_1   Si     0.417471     0.300024     0.915180
   si1_1   Si     0.421195     0.320737     0.941365
   si1_1   Si     0.466128     0.277247     0.926279
   si1_1   Si     0.469852     0.297960     0.952463
   si1_1   Si     0.463101     0.320414     0.892561
   si1_1   Si     0.466825     0.341127     0.918746
   si1_1   Si     0.453865     0.326846     0.946253
   si1_1   Si     0.457589     0.347559     0.972437
   si1_1   Si     0.450838     0.370014     0.912536
   si1_1   Si     0.454562     0.390727     0.938720
   si1_1   Si     0.499495     0.347236     0.923634
   si1_1   Si     0.503219     0.367949     0.949819
   si1_1   Si     0.496468     0.390404     0.889917
   si1_1   Si     0.500192     0.411117     0.916101
   si1_1   Si     0.487232     0.396835     0.943608
   si1_1   Si     0.490956     0.417549     0.969793
   si1_1   Si     0.484206     0.440003     0.909891
   si1_1   Si     0.487929     0.460716     0.936076
   si1_1   Si     0.532862     0.417226     0.920989
   si1_1   Si     0.536586     0.437939     0.947174
   si1_1   Si     0.529835     0.460393     0.887272
   si1_1   Si     0.533559     0.481106     0.913457
   si1_1   Si     0.520600     0.466825     0.940964
   si1_1   Si     0.524323     0.487538     0.967148
   si1_1   Si     0.517573     0.509992     0.907247
   si1_1   Si     0.521297     0.530706     0.933431
   si1_1   Si     0.566229     0.487215     0.918345
   si1_1   Si     0.569953     0.507928     0.944529
   si1_1   Si     0.563202     0.530383     0.884628
   si1_1   Si     0.566926     0.551096     0.910812
   si1_1   Si     0.553967     0.536814     0.938319
   si1_1   Si     0.557691     0.557528     0.964504
   si1_1   Si     0.550940     0.579982     0.904602
   si1_1   Si     0.554664     0.600695     0.930787
   si1_1   Si     0.599596     0.557204     0.915700
   si1_1   Si     0.603320     0.577918     0.941885
   si1_1   Si     0.587334     0.606804     0.935675
   si1_1   Si     0.423525     0.213689     0.982614
   si1_1   Si     0.469155     0.234079     0.959996
   si1_1   Si     0.456892     0.283678     0.979970
   si1_1   Si     0.502522     0.304069     0.957351
   si1_1   Si     0.506246     0.324782     0.983536
   si1_1   Si     0.490259     0.353668     0.977325
   si1_1   Si     0.535889     0.374058     0.954706
   si1_1   Si     0.539613     0.394771     0.980891
   si1_1   Si     0.523626     0.423657     0.974681
   si1_1   Si     0.572283     0.400880     0.985779
   si1_1   Si     0.569256     0.444047     0.952062
   si1_1   Si     0.572980     0.464761     0.978247
   si1_1   Si     0.556994     0.493647     0.972036
   si1_1   Si     0.560717     0.514360     0.998221
   si1_1   Si     0.605650     0.470869     0.983134
   si1_1   Si     0.602623     0.514037     0.949417
   si1_1   Si     0.606347     0.534750     0.975602
   si1_1   Si     0.590361     0.563636     0.969392
   si1_1   Si     0.594085     0.584349     0.995576
   si1_1   Si     0.639017     0.540859     0.980490
   si1_1   Si     0.126081     0.384140     0.602753
   si1_1   Si     0.129805     0.404853     0.628938
   si1_1   Si     0.171710     0.404530     0.580134
   si1_1   Si     0.175434     0.425243     0.606319
   si1_1   Si     0.172408     0.468410     0.572602
   si1_1   Si     0.159448     0.454129     0.600108
   si1_1   Si     0.163172     0.474842     0.626293
   si1_1   Si     0.205078     0.474519     0.577490
   si1_1   Si     0.208802     0.495232     0.603674
   si1_1   Si     0.242169     0.565222     0.601030
   si1_1   Si     0.132832     0.361685     0.662655
   si1_1   Si     0.181488     0.338908     0.673753
   si1_1   Si     0.174737     0.361362     0.613851
   si1_1   Si     0.178461     0.382075     0.640036
   si1_1   Si     0.165502     0.367794     0.667543
   si1_1   Si     0.169226     0.388507     0.693727
   si1_1   Si     0.162475     0.410961     0.633826
   si1_1   Si     0.166199     0.431675     0.660010
   si1_1   Si     0.211131     0.388184     0.644924
   si1_1   Si     0.214855     0.408897     0.671108
   si1_1   Si     0.208104     0.431352     0.611207
   si1_1   Si     0.211828     0.452065     0.637391
   si1_1   Si     0.198869     0.437783     0.664898
   si1_1   Si     0.202593     0.458497     0.691083
   si1_1   Si     0.195842     0.480951     0.631181
   si1_1   Si     0.199566     0.501664     0.657366
   si1_1   Si     0.244498     0.458173     0.642279
   si1_1   Si     0.248222     0.478887     0.668464
   si1_1   Si     0.241472     0.501341     0.608562
   si1_1   Si     0.245196     0.522054     0.634747
   si1_1   Si     0.232236     0.507773     0.662254
   si1_1   Si     0.235960     0.528486     0.688438
   si1_1   Si     0.229209     0.550940     0.628536
   si1_1   Si     0.232933     0.571654     0.654721
   si1_1   Si     0.277866     0.528163     0.639635
   si1_1   Si     0.281589     0.548876     0.665819
   si1_1   Si     0.274839     0.571330     0.605918
   si1_1   Si     0.278563     0.592044     0.632102
   si1_1   Si     0.265603     0.577762     0.659609
   si1_1   Si     0.269327     0.598475     0.685794
   si1_1   Si     0.262576     0.620930     0.625892
   si1_1   Si     0.266300     0.641643     0.652077
   si1_1   Si     0.311233     0.598152     0.636990
   si1_1   Si     0.314957     0.618866     0.663175
   si1_1   Si     0.311930     0.662033     0.629458
   si1_1   Si     0.298970     0.647752     0.656964
   si1_1   Si     0.302694     0.668465     0.683149
   si1_1   Si     0.344600     0.668142     0.634346
   si1_1   Si     0.348324     0.688855     0.660530
   si1_1   Si     0.175279     0.302172     0.761161
   si1_1   Si     0.168529     0.324626     0.701260
   si1_1   Si     0.172252     0.345340     0.727444
   si1_1   Si     0.217185     0.301849     0.712358
   si1_1   Si     0.220909     0.322562     0.738542
   si1_1   Si     0.214158     0.345017     0.678641
   si1_1   Si     0.217882     0.365730     0.704825
   si1_1   Si     0.204923     0.351448     0.732332
   si1_1   Si     0.208646     0.372162     0.758517
   si1_1   Si     0.201896     0.394616     0.698615
   si1_1   Si     0.205620     0.415329     0.724800
   si1_1   Si     0.250552     0.371838     0.709713
   si1_1   Si     0.254276     0.392552     0.735898
   si1_1   Si     0.247525     0.415006     0.675996
   si1_1   Si     0.251249     0.435719     0.702181
   si1_1   Si     0.238290     0.421438     0.729688
   si1_1   Si     0.242014     0.442151     0.755872
   si1_1   Si     0.235263     0.464605     0.695971
   si1_1   Si     0.238987     0.485319     0.722155
   si1_1   Si     0.283919     0.441828     0.707069
   si1_1   Si     0.287643     0.462541     0.733253
   si1_1   Si     0.280892     0.484995     0.673352
   si1_1   Si     0.284616     0.505709     0.699536
   si1_1   Si     0.271657     0.491427     0.727043
   si1_1   Si     0.275381     0.512140     0.753228
   si1_1   Si     0.268630     0.534595     0.693326
   si1_1   Si     0.272354     0.555308     0.719511
   si1_1   Si     0.317286     0.511817     0.704424
   si1_1   Si     0.321010     0.532531     0.730609
   si1_1   Si     0.314260     0.554985     0.670707
   si1_1   Si     0.317983     0.575698     0.696892
   si1_1   Si     0.305024     0.561417     0.724399
   si1_1   Si     0.308748     0.582130     0.750583
   si1_1   Si     0.301997     0.604584     0.690682
   si1_1   Si     0.305721     0.625297     0.716866
   si1_1   Si     0.350654     0.581807     0.701780
   si1_1   Si     0.354377     0.602520     0.727964
   si1_1   Si     0.347627     0.624974     0.668063
   si1_1   Si     0.351351     0.645687     0.694247
   si1_1   Si     0.338391     0.631406     0.721754
   si1_1   Si     0.342115     0.652119     0.747939
   si1_1   Si     0.335364     0.674574     0.688037
   si1_1   Si     0.339088     0.695287     0.714222
   si1_1   Si     0.384021     0.651796     0.699135
   si1_1   Si     0.387745     0.672509     0.725320
   si1_1   Si     0.371758     0.701395     0.719110
   si1_1   Si     0.226963     0.236227     0.805977
   si1_1   Si     0.220212     0.258681     0.746075
   si1_1   Si     0.223936     0.279395     0.772260
   si1_1   Si     0.210976     0.265113     0.799766
   si1_1   Si     0.214700     0.285826     0.825951
   si1_1   Si     0.207949     0.308281     0.766049
   si1_1   Si     0.211673     0.328994     0.792234
   si1_1   Si     0.256606     0.285503     0.777147
   si1_1   Si     0.260330     0.306217     0.803332
   si1_1   Si     0.253579     0.328671     0.743430
   si1_1   Si     0.257303     0.349384     0.769615
   si1_1   Si     0.244343     0.335103     0.797122
   si1_1   Si     0.248067     0.355816     0.823306
   si1_1   Si     0.241317     0.378270     0.763405
   si1_1   Si     0.245040     0.398983     0.789589
   si1_1   Si     0.289973     0.355493     0.774503
   si1_1   Si     0.293697     0.376206     0.800688
   si1_1   Si     0.286946     0.398660     0.740786
   si1_1   Si     0.290670     0.419374     0.766970
   si1_1   Si     0.277711     0.405092     0.794477
   si1_1   Si     0.281434     0.425805     0.820662
   si1_1   Si     0.274684     0.448260     0.760760
   si1_1   Si     0.278408     0.468973     0.786945
   si1_1   Si     0.323340     0.425482     0.771858
   si1_1   Si     0.327064     0.446195     0.798043
   si1_1   Si     0.320313     0.468650     0.738141
   si1_1   Si     0.324037     0.489363     0.764326
   si1_1   Si     0.311078     0.475082     0.791833
   si1_1   Si     0.314802     0.495795     0.818017
   si1_1   Si     0.308051     0.518249     0.758116
   si1_1   Si     0.311775     0.538962     0.784300
   si1_1   Si     0.356707     0.495472     0.769214
   si1_1   Si     0.360431     0.516185     0.795398
   si1_1   Si     0.353680     0.538639     0.735497
   si1_1   Si     0.357404     0.559352     0.761681
   si1_1   Si     0.344445     0.545071     0.789188
   si1_1   Si     0.348169     0.565784     0.815373
   si1_1   Si     0.341418     0.588238     0.755471
   si1_1   Si     0.345142     0.608952     0.781656
   si1_1   Si     0.390074     0.565461     0.766569
   si1_1   Si     0.393798     0.586174     0.792754
   si1_1   Si     0.387047     0.608629     0.732852
   si1_1   Si     0.390771     0.629342     0.759037
   si1_1   Si     0.377812     0.615060     0.786544
   si1_1   Si     0.381536     0.635774     0.812728
   si1_1   Si     0.374785     0.658228     0.752827
   si1_1   Si     0.378509     0.678941     0.779011
   si1_1   Si     0.423441     0.635451     0.763925
   si1_1   Si     0.427165     0.656164     0.790109
   si1_1   Si     0.411179     0.685050     0.783899
   si1_1   Si     0.220754     0.199491     0.893385
   si1_1   Si     0.214003     0.221946     0.833484
   si1_1   Si     0.217727     0.242659     0.859668
   si1_1   Si     0.262660     0.199168     0.844582
   si1_1   Si     0.266384     0.219882     0.870766
   si1_1   Si     0.259633     0.242336     0.810865
   si1_1   Si     0.263357     0.263049     0.837049
   si1_1   Si     0.250397     0.248768     0.864556
   si1_1   Si     0.254121     0.269481     0.890741
   si1_1   Si     0.247370     0.291935     0.830839
   si1_1   Si     0.251094     0.312648     0.857024
   si1_1   Si     0.296027     0.269158     0.841937
   si1_1   Si     0.299751     0.289871     0.868122
   si1_1   Si     0.293000     0.312325     0.808220
   si1_1   Si     0.296724     0.333039     0.834405
   si1_1   Si     0.283764     0.318757     0.861912
   si1_1   Si     0.287488     0.339470     0.888096
   si1_1   Si     0.280737     0.361925     0.828194
   si1_1   Si     0.284461     0.382638     0.854379
   si1_1   Si     0.329394     0.339147     0.839293
   si1_1   Si     0.333118     0.359860     0.865477
   si1_1   Si     0.326367     0.382315     0.805575
   si1_1   Si     0.330091     0.403028     0.831760
   si1_1   Si     0.317131     0.388746     0.859267
   si1_1   Si     0.320855     0.409460     0.885452
   si1_1   Si     0.314104     0.431914     0.825550
   si1_1   Si     0.317828     0.452627     0.851734
   si1_1   Si     0.362761     0.409137     0.836648
   si1_1   Si     0.366485     0.429850     0.862833
   si1_1   Si     0.359734     0.452304     0.802931
   si1_1   Si     0.363458     0.473017     0.829116
   si1_1   Si     0.350498     0.458736     0.856622
   si1_1   Si     0.354222     0.479449     0.882807
   si1_1   Si     0.347472     0.501903     0.822905
   si1_1   Si     0.351196     0.522617     0.849090
   si1_1   Si     0.396128     0.479126     0.834003
   si1_1   Si     0.399852     0.499839     0.860188
   si1_1   Si     0.393101     0.522294     0.800286
   si1_1   Si     0.396825     0.543007     0.826471
   si1_1   Si     0.383866     0.528725     0.853978
   si1_1   Si     0.387589     0.549439     0.880162
   si1_1   Si     0.380839     0.571893     0.820261
   si1_1   Si     0.384563     0.592606     0.846445
   si1_1   Si     0.429495     0.549115     0.831359
   si1_1   Si     0.433219     0.569829     0.857544
   si1_1   Si     0.426468     0.592283     0.797642
   si1_1   Si     0.430192     0.612996     0.823826
   si1_1   Si     0.417233     0.598715     0.851333
   si1_1   Si     0.420957     0.619428     0.877518
   si1_1   Si     0.414206     0.641882     0.817616
   si1_1   Si     0.417930     0.662596     0.843801
   si1_1   Si     0.462862     0.619105     0.828714
   si1_1   Si     0.466586     0.639818     0.854899
   si1_1   Si     0.450600     0.668704     0.848689
   si1_1   Si     0.454324     0.689417     0.874873
   si1_1   Si     0.269411     0.176714     0.904483
   si1_1   Si     0.256451     0.162433     0.931990
   si1_1   Si     0.260175     0.183146     0.958175
   si1_1   Si     0.253424     0.205600     0.898273
   si1_1   Si     0.257148     0.226313     0.924458
   si1_1   Si     0.302081     0.182823     0.909371
   si1_1   Si     0.305805     0.203536     0.935556
   si1_1   Si     0.299054     0.225990     0.875654
   si1_1   Si     0.302778     0.246703     0.901839
   si1_1   Si     0.289818     0.232422     0.929346
   si1_1   Si     0.293542     0.253135     0.955530
   si1_1   Si     0.286791     0.275590     0.895629
   si1_1   Si     0.290515     0.296303     0.921813
   si1_1   Si     0.335448     0.252812     0.906727
   si1_1   Si     0.339172     0.273525     0.932911
   si1_1   Si     0.332421     0.295980     0.873010
   si1_1   Si     0.336145     0.316693     0.899194
   si1_1   Si     0.323185     0.302411     0.926701
   si1_1   Si     0.326909     0.323125     0.952886
   si1_1   Si     0.320158     0.345579     0.892984
   si1_1   Si     0.323882     0.366292     0.919169
   si1_1   Si     0.368815     0.322802     0.904082
   si1_1   Si     0.372539     0.343515     0.930267
   si1_1   Si     0.365788     0.365969     0.870365
   si1_1   Si     0.369512     0.386682     0.896550
   si1_1   Si     0.356552     0.372401     0.924057
   si1_1   Si     0.360276     0.393114     0.950241
   si1_1   Si     0.353525     0.415568     0.890339
   si1_1   Si     0.357249     0.436282     0.916524
   si1_1   Si     0.402182     0.392791     0.901438
   si1_1   Si     0.405906     0.413504     0.927622
   si1_1   Si     0.399155     0.435959     0.867721
   si1_1   Si     0.402879     0.456672     0.893905
   si1_1   Si     0.389919     0.442390     0.921412
   si1_1   Si     0.393643     0.463104     0.947597
   si1_1   Si     0.386892     0.485558     0.887695
   si1_1   Si     0.390616     0.506271     0.913880
   si1_1   Si     0.435549     0.462780     0.898793
   si1_1   Si     0.439273     0.483494     0.924978
   si1_1   Si     0.432522     0.505948     0.865076
   si1_1   Si     0.436246     0.526661     0.891261
   si1_1   Si     0.423286     0.512380     0.918767
   si1_1   Si     0.427010     0.533093     0.944952
   si1_1   Si     0.420260     0.555547     0.885050
   si1_1   Si     0.423983     0.576260     0.911235
   si1_1   Si     0.468916     0.532770     0.896149
   si1_1   Si     0.472640     0.553483     0.922333
   si1_1   Si     0.465889     0.575937     0.862431
   si1_1   Si     0.469613     0.596651     0.888616
   si1_1   Si     0.456654     0.582369     0.916123
   si1_1   Si     0.460377     0.603082     0.942308
   si1_1   Si     0.453627     0.625537     0.882406
   si1_1   Si     0.457351     0.646250     0.908590
   si1_1   Si     0.502283     0.602759     0.893504
   si1_1   Si     0.506007     0.623473     0.919689
   si1_1   Si     0.499256     0.645927     0.859787
   si1_1   Si     0.490021     0.652359     0.913478
   si1_1   Si     0.493745     0.673072     0.939663
   si1_1   Si     0.292845     0.189254     0.963063
   si1_1   Si     0.338475     0.209645     0.940444
   si1_1   Si     0.342199     0.230358     0.966628
   si1_1   Si     0.326212     0.259244     0.960418
   si1_1   Si     0.329936     0.279957     0.986603
   si1_1   Si     0.374869     0.236466     0.971516
   si1_1   Si     0.378592     0.257180     0.997701
   si1_1   Si     0.371842     0.279634     0.937799
   si1_1   Si     0.375566     0.300347     0.963984
   si1_1   Si     0.362606     0.286066     0.991491
   si1_1   Si     0.359579     0.329233     0.957774
   si1_1   Si     0.363303     0.349947     0.983958
   si1_1   Si     0.408236     0.306456     0.968872
   si1_1   Si     0.411960     0.327169     0.995056
   si1_1   Si     0.405209     0.349623     0.935155
   si1_1   Si     0.408933     0.370337     0.961339
   si1_1   Si     0.395973     0.356055     0.988846
   si1_1   Si     0.392946     0.399223     0.955129
   si1_1   Si     0.396670     0.419936     0.981314
   si1_1   Si     0.441603     0.376445     0.966227
   si1_1   Si     0.445327     0.397159     0.992412
   si1_1   Si     0.438576     0.419613     0.932510
   si1_1   Si     0.442300     0.440326     0.958695
   si1_1   Si     0.429340     0.426045     0.986202
   si1_1   Si     0.426313     0.469212     0.952485
   si1_1   Si     0.430037     0.489925     0.978669
   si1_1   Si     0.474970     0.446435     0.963583
   si1_1   Si     0.478694     0.467148     0.989767
   si1_1   Si     0.471943     0.489602     0.929866
   si1_1   Si     0.475667     0.510316     0.956050
   si1_1   Si     0.462707     0.496034     0.983557
   si1_1   Si     0.459680     0.539202     0.949840
   si1_1   Si     0.463404     0.559915     0.976025
   si1_1   Si     0.508337     0.516424     0.960938
   si1_1   Si     0.512061     0.537137     0.987123
   si1_1   Si     0.505310     0.559592     0.927221
   si1_1   Si     0.509034     0.580305     0.953406
   si1_1   Si     0.496074     0.566024     0.980913
   si1_1   Si     0.493048     0.609191     0.947195
   si1_1   Si     0.496771     0.629904     0.973380
   si1_1   Si     0.541704     0.586414     0.958294
   si1_1   Si     0.545428     0.607127     0.984478
   si1_1   Si     0.538677     0.629581     0.924577
   si1_1   Si     0.542401     0.650294     0.950761
   si1_1   Si     0.529441     0.636013     0.978268
   si1_1   Si     0.477997     0.403267     0.997300
   si1_1   Si     0.511364     0.473257     0.994655
   si1_1   Si     0.544731     0.543246     0.992011
   si1_1   Si     0.578098     0.613236     0.989366
   si1_1   Si     0.074939     0.390894     0.705248
   si1_1   Si     0.123596     0.368117     0.716346
   si1_1   Si     0.116845     0.390571     0.656444
   si1_1   Si     0.120569     0.411285     0.682629
   si1_1   Si     0.107609     0.397003     0.710136
   si1_1   Si     0.111333     0.417716     0.736321
   si1_1   Si     0.153239     0.417393     0.687517
   si1_1   Si     0.156963     0.438106     0.713702
   si1_1   Si     0.150212     0.460561     0.653800
   si1_1   Si     0.153936     0.481274     0.679985
   si1_1   Si     0.140977     0.466993     0.707491
   si1_1   Si     0.144700     0.487706     0.733676
   si1_1   Si     0.186606     0.487383     0.684872
   si1_1   Si     0.190330     0.508096     0.711057
   si1_1   Si     0.219973     0.557372     0.682228
   si1_1   Si     0.223697     0.578085     0.708413
   si1_1   Si     0.253340     0.627362     0.679583
   si1_1   Si     0.257064     0.648075     0.705768
   si1_1   Si     0.126623     0.324950     0.750063
   si1_1   Si     0.117387     0.331381     0.803755
   si1_1   Si     0.110636     0.353836     0.743853
   si1_1   Si     0.114360     0.374549     0.770038
   si1_1   Si     0.159293     0.331058     0.754951
   si1_1   Si     0.163017     0.351771     0.781136
   si1_1   Si     0.156266     0.374226     0.721234
   si1_1   Si     0.159990     0.394939     0.747419
   si1_1   Si     0.147030     0.380657     0.774926
   si1_1   Si     0.150754     0.401371     0.801110
   si1_1   Si     0.144003     0.423825     0.741209
   si1_1   Si     0.147727     0.444538     0.767393
   si1_1   Si     0.192660     0.401048     0.752307
   si1_1   Si     0.196384     0.421761     0.778491
   si1_1   Si     0.189633     0.444215     0.718590
   si1_1   Si     0.193357     0.464928     0.744774
   si1_1   Si     0.180397     0.450647     0.772281
   si1_1   Si     0.184121     0.471360     0.798466
   si1_1   Si     0.177371     0.493814     0.738564
   si1_1   Si     0.181094     0.514528     0.764749
   si1_1   Si     0.226027     0.471037     0.749662
   si1_1   Si     0.229751     0.491750     0.775847
   si1_1   Si     0.223000     0.514205     0.715945
   si1_1   Si     0.226724     0.534918     0.742130
   si1_1   Si     0.213765     0.520636     0.769636
   si1_1   Si     0.217488     0.541350     0.795821
   si1_1   Si     0.210738     0.563804     0.735919
   si1_1   Si     0.214462     0.584517     0.762104
   si1_1   Si     0.259394     0.541026     0.747018
   si1_1   Si     0.263118     0.561740     0.773202
   si1_1   Si     0.256367     0.584194     0.713300
   si1_1   Si     0.260091     0.604907     0.739485
   si1_1   Si     0.247132     0.590626     0.766992
   si1_1   Si     0.250856     0.611339     0.793177
   si1_1   Si     0.244105     0.633793     0.733275
   si1_1   Si     0.247829     0.654507     0.759459
   si1_1   Si     0.292761     0.611016     0.744373
   si1_1   Si     0.296485     0.631729     0.770558
   si1_1   Si     0.289734     0.654183     0.710656
   si1_1   Si     0.293458     0.674897     0.736841
   si1_1   Si     0.280499     0.660615     0.764347
   si1_1   Si     0.284223     0.681328     0.790532
   si1_1   Si     0.326128     0.681005     0.741728
   si1_1   Si     0.329852     0.701719     0.767913
   si1_1   Si     0.323101     0.724173     0.708011
   si1_1   Si     0.326825     0.744886     0.734196
   si1_1   Si     0.313866     0.730605     0.761703
   si1_1   Si     0.317590     0.751318     0.787887
   si1_1   Si     0.120414     0.288214     0.837472
   si1_1   Si     0.169071     0.265436     0.848570
   si1_1   Si     0.162320     0.287891     0.788668
   si1_1   Si     0.166044     0.308604     0.814853
   si1_1   Si     0.153084     0.294322     0.842360
   si1_1   Si     0.156808     0.315036     0.868544
   si1_1   Si     0.150057     0.337490     0.808643
   si1_1   Si     0.153781     0.358203     0.834827
   si1_1   Si     0.198714     0.314713     0.819741
   si1_1   Si     0.202438     0.335426     0.845925
   si1_1   Si     0.195687     0.357880     0.786024
   si1_1   Si     0.199411     0.378593     0.812208
   si1_1   Si     0.186451     0.364312     0.839715
   si1_1   Si     0.190175     0.385025     0.865900
   si1_1   Si     0.183424     0.407479     0.805998
   si1_1   Si     0.187148     0.428193     0.832183
   si1_1   Si     0.232081     0.384702     0.817096
   si1_1   Si     0.235805     0.405415     0.843281
   si1_1   Si     0.229054     0.427870     0.783379
   si1_1   Si     0.232778     0.448583     0.809564
   si1_1   Si     0.219818     0.434301     0.837071
   si1_1   Si     0.223542     0.455015     0.863255
   si1_1   Si     0.216791     0.477469     0.803354
   si1_1   Si     0.220515     0.498182     0.829538
   si1_1   Si     0.265448     0.454691     0.814452
   si1_1   Si     0.269172     0.475405     0.840636
   si1_1   Si     0.262421     0.497859     0.780735
   si1_1   Si     0.266145     0.518572     0.806919
   si1_1   Si     0.253185     0.504291     0.834426
   si1_1   Si     0.256909     0.525004     0.860611
   si1_1   Si     0.250158     0.547458     0.800709
   si1_1   Si     0.253882     0.568172     0.826894
   si1_1   Si     0.298815     0.524681     0.811807
   si1_1   Si     0.302539     0.545394     0.837992
   si1_1   Si     0.295788     0.567848     0.778090
   si1_1   Si     0.299512     0.588562     0.804275
   si1_1   Si     0.286552     0.574280     0.831782
   si1_1   Si     0.290276     0.594993     0.857966
   si1_1   Si     0.283526     0.617448     0.798064
   si1_1   Si     0.287250     0.638161     0.824249
   si1_1   Si     0.332182     0.594670     0.809163
   si1_1   Si     0.335906     0.615384     0.835347
   si1_1   Si     0.329155     0.637838     0.775446
   si1_1   Si     0.332879     0.658551     0.801630
   si1_1   Si     0.319920     0.644270     0.829137
   si1_1   Si     0.323644     0.664983     0.855322
   si1_1   Si     0.316893     0.687437     0.795420
   si1_1   Si     0.320617     0.708150     0.821605
   si1_1   Si     0.365549     0.664660     0.806518
   si1_1   Si     0.369273     0.685373     0.832703
   si1_1   Si     0.362522     0.707827     0.772801
   si1_1   Si     0.366246     0.728541     0.798986
   si1_1   Si     0.353287     0.714259     0.826492
   si1_1   Si     0.357011     0.734972     0.852677
   si1_1   Si     0.156111     0.251155     0.876077
   si1_1   Si     0.159835     0.271868     0.902261
   si1_1   Si     0.204767     0.228377     0.887175
   si1_1   Si     0.208491     0.249091     0.913360
   si1_1   Si     0.201741     0.271545     0.853458
   si1_1   Si     0.205465     0.292258     0.879642
   si1_1   Si     0.192505     0.277977     0.907149
   si1_1   Si     0.196229     0.298690     0.933334
   si1_1   Si     0.189478     0.321144     0.873432
   si1_1   Si     0.193202     0.341858     0.899617
   si1_1   Si     0.238135     0.298367     0.884530
   si1_1   Si     0.241859     0.319080     0.910715
   si1_1   Si     0.235108     0.341534     0.850813
   si1_1   Si     0.238832     0.362248     0.876998
   si1_1   Si     0.225872     0.347966     0.904505
   si1_1   Si     0.229596     0.368679     0.930689
   si1_1   Si     0.222845     0.391134     0.870788
   si1_1   Si     0.226569     0.411847     0.896972
   si1_1   Si     0.271502     0.368356     0.881886
   si1_1   Si     0.275226     0.389070     0.908070
   si1_1   Si     0.268475     0.411524     0.848169
   si1_1   Si     0.272199     0.432237     0.874353
   si1_1   Si     0.259239     0.417956     0.901860
   si1_1   Si     0.262963     0.438669     0.928045
   si1_1   Si     0.256212     0.461123     0.868143
   si1_1   Si     0.259936     0.481836     0.894328
   si1_1   Si     0.304869     0.438346     0.879241
   si1_1   Si     0.308593     0.459059     0.905426
   si1_1   Si     0.301842     0.481513     0.845524
   si1_1   Si     0.305566     0.502227     0.871709
   si1_1   Si     0.292606     0.487945     0.899216
   si1_1   Si     0.296330     0.508658     0.925400
   si1_1   Si     0.289579     0.531113     0.865499
   si1_1   Si     0.293303     0.551826     0.891683
   si1_1   Si     0.338236     0.508335     0.876597
   si1_1   Si     0.341960     0.529048     0.902781
   si1_1   Si     0.335209     0.551503     0.842880
   si1_1   Si     0.338933     0.572216     0.869064
   si1_1   Si     0.325973     0.557935     0.896571
   si1_1   Si     0.329697     0.578648     0.922756
   si1_1   Si     0.322946     0.601102     0.862854
   si1_1   Si     0.326670     0.621815     0.889039
   si1_1   Si     0.371603     0.578325     0.873952
   si1_1   Si     0.375327     0.599038     0.900137
   si1_1   Si     0.368576     0.621492     0.840235
   si1_1   Si     0.372300     0.642205     0.866420
   si1_1   Si     0.359340     0.627924     0.893927
   si1_1   Si     0.363064     0.648637     0.920111
   si1_1   Si     0.356314     0.671092     0.860210
   si1_1   Si     0.360037     0.691805     0.886394
   si1_1   Si     0.404970     0.648314     0.871308
   si1_1   Si     0.408694     0.669027     0.897492
   si1_1   Si     0.401943     0.691482     0.837591
   si1_1   Si     0.405667     0.712195     0.863775
   si1_1   Si     0.392708     0.697913     0.891282
   si1_1   Si     0.396431     0.718627     0.917467
   si1_1   Si     0.211518     0.205923     0.947077
   si1_1   Si     0.195532     0.234809     0.940866
   si1_1   Si     0.199256     0.255523     0.967051
   si1_1   Si     0.244188     0.212032     0.951965
   si1_1   Si     0.247912     0.232745     0.978149
   si1_1   Si     0.241161     0.255199     0.918247
   si1_1   Si     0.244885     0.275913     0.944432
   si1_1   Si     0.231926     0.261631     0.971939
   si1_1   Si     0.235650     0.282344     0.998124
   si1_1   Si     0.228899     0.304799     0.938222
   si1_1   Si     0.232623     0.325512     0.964406
   si1_1   Si     0.277555     0.282021     0.949320
   si1_1   Si     0.281279     0.302735     0.975505
   si1_1   Si     0.274529     0.325189     0.915603
   si1_1   Si     0.278253     0.345902     0.941788
   si1_1   Si     0.265293     0.331621     0.969294
   si1_1   Si     0.269017     0.352334     0.995479
   si1_1   Si     0.262266     0.374788     0.935577
   si1_1   Si     0.265990     0.395501     0.961762
   si1_1   Si     0.310923     0.352011     0.946676
   si1_1   Si     0.314646     0.372724     0.972860
   si1_1   Si     0.307896     0.395178     0.912958
   si1_1   Si     0.311620     0.415892     0.939143
   si1_1   Si     0.298660     0.401610     0.966650
   si1_1   Si     0.302384     0.422323     0.992834
   si1_1   Si     0.295633     0.444778     0.932933
   si1_1   Si     0.299357     0.465491     0.959117
   si1_1   Si     0.344290     0.422000     0.944031
   si1_1   Si     0.348014     0.442713     0.970216
   si1_1   Si     0.341263     0.465168     0.910314
   si1_1   Si     0.344987     0.485881     0.936498
   si1_1   Si     0.332027     0.471599     0.964005
   si1_1   Si     0.335751     0.492313     0.990190
   si1_1   Si     0.329000     0.514767     0.930288
   si1_1   Si     0.332724     0.535480     0.956473
   si1_1   Si     0.377657     0.491990     0.941386
   si1_1   Si     0.381381     0.512703     0.967571
   si1_1   Si     0.374630     0.535157     0.907669
   si1_1   Si     0.378354     0.555870     0.933854
   si1_1   Si     0.365394     0.541589     0.961361
   si1_1   Si     0.369118     0.562302     0.987545
   si1_1   Si     0.362367     0.584756     0.927644
   si1_1   Si     0.366091     0.605470     0.953828
   si1_1   Si     0.411024     0.561979     0.938742
   si1_1   Si     0.414748     0.582692     0.964926
   si1_1   Si     0.407997     0.605147     0.905025
   si1_1   Si     0.411721     0.625860     0.931209
   si1_1   Si     0.398761     0.611578     0.958716
   si1_1   Si     0.402485     0.632292     0.984901
   si1_1   Si     0.395734     0.654746     0.924999
   si1_1   Si     0.399458     0.675459     0.951184
   si1_1   Si     0.444391     0.631968     0.936097
   si1_1   Si     0.448115     0.652682     0.962282
   si1_1   Si     0.441364     0.675136     0.902380
   si1_1   Si     0.445088     0.695849     0.928565
   si1_1   Si     0.432128     0.681568     0.956072
   si1_1   Si     0.435852     0.702281     0.982256
   si1_1   Si     0.429102     0.724735     0.922355
   si1_1   Si     0.280582     0.238854     0.983037
   si1_1   Si     0.313949     0.308843     0.980393
   si1_1   Si     0.347317     0.378833     0.977748
   si1_1   Si     0.335054     0.428432     0.997722
   si1_1   Si     0.380684     0.448822     0.975104
   si1_1   Si     0.368421     0.498421     0.995078
   si1_1   Si     0.414051     0.518812     0.972459
   si1_1   Si     0.417775     0.539525     0.998644
   si1_1   Si     0.401788     0.568411     0.992433
   si1_1   Si     0.447418     0.588801     0.969814
   si1_1   Si     0.451142     0.609514     0.995999
   si1_1   Si     0.435155     0.638400     0.989789
   si1_1   Si     0.480785     0.658790     0.967170
   si1_1   Si     0.484509     0.679504     0.993354
   si1_1   Si     0.468522     0.708390     0.987144
   si1_1   Si     0.517179     0.685612     0.998242
   si1_1   Si     0.061980     0.376613     0.732755
   si1_1   Si     0.065704     0.397326     0.758939
   si1_1   Si     0.068731     0.354159     0.792657
   si1_1   Si     0.059495     0.360591     0.846348
   si1_1   Si     0.052744     0.383045     0.786446
   si1_1   Si     0.056468     0.403758     0.812631
   si1_1   Si     0.101401     0.360267     0.797544
   si1_1   Si     0.105125     0.380981     0.823729
   si1_1   Si     0.098374     0.403435     0.763827
   si1_1   Si     0.102098     0.424148     0.790012
   si1_1   Si     0.089138     0.409867     0.817519
   si1_1   Si     0.092862     0.430580     0.843703
   si1_1   Si     0.134768     0.430257     0.794900
   si1_1   Si     0.138492     0.450970     0.821085
   si1_1   Si     0.131741     0.473424     0.761183
   si1_1   Si     0.135465     0.494138     0.787367
   si1_1   Si     0.122505     0.479856     0.814874
   si1_1   Si     0.126229     0.500569     0.841059
   si1_1   Si     0.168135     0.500246     0.792255
   si1_1   Si     0.171859     0.520960     0.818440
   si1_1   Si     0.201502     0.570236     0.789611
   si1_1   Si     0.205226     0.590949     0.815795
   si1_1   Si     0.234869     0.640225     0.786966
   si1_1   Si     0.238593     0.660938     0.813151
   si1_1   Si     0.104428     0.317100     0.831262
   si1_1   Si     0.108151     0.337813     0.857446
   si1_1   Si     0.095192     0.323532     0.884953
   si1_1   Si     0.098916     0.344245     0.911138
   si1_1   Si     0.092165     0.366699     0.851236
   si1_1   Si     0.095889     0.387412     0.877421
   si1_1   Si     0.140822     0.343922     0.862334
   si1_1   Si     0.144545     0.364635     0.888519
   si1_1   Si     0.137795     0.387089     0.828617
   si1_1   Si     0.141519     0.407803     0.854802
   si1_1   Si     0.128559     0.393521     0.882309
   si1_1   Si     0.132283     0.414234     0.908493
   si1_1   Si     0.125532     0.436689     0.848591
   si1_1   Si     0.129256     0.457402     0.874776
   si1_1   Si     0.174189     0.413911     0.859690
   si1_1   Si     0.177913     0.434624     0.885874
   si1_1   Si     0.171162     0.457079     0.825972
   si1_1   Si     0.174886     0.477792     0.852157
   si1_1   Si     0.161926     0.463511     0.879664
   si1_1   Si     0.165650     0.484224     0.905849
   si1_1   Si     0.158899     0.506678     0.845947
   si1_1   Si     0.162623     0.527391     0.872131
   si1_1   Si     0.207556     0.483901     0.857045
   si1_1   Si     0.211280     0.504614     0.883230
   si1_1   Si     0.204529     0.527068     0.823328
   si1_1   Si     0.208253     0.547781     0.849513
   si1_1   Si     0.195293     0.533500     0.877019
   si1_1   Si     0.199017     0.554213     0.903204
   si1_1   Si     0.192266     0.576667     0.843302
   si1_1   Si     0.195990     0.597381     0.869487
   si1_1   Si     0.240923     0.553890     0.854401
   si1_1   Si     0.244647     0.574603     0.880585
   si1_1   Si     0.237896     0.597058     0.820683
   si1_1   Si     0.241620     0.617771     0.846868
   si1_1   Si     0.228660     0.603489     0.874375
   si1_1   Si     0.232384     0.624203     0.900559
   si1_1   Si     0.225633     0.646657     0.840658
   si1_1   Si     0.229357     0.667370     0.866842
   si1_1   Si     0.274290     0.623879     0.851756
   si1_1   Si     0.278014     0.644593     0.877941
   si1_1   Si     0.271263     0.667047     0.818039
   si1_1   Si     0.274987     0.687760     0.844223
   si1_1   Si     0.262027     0.673479     0.871730
   si1_1   Si     0.265751     0.694192     0.897915
   si1_1   Si     0.307657     0.693869     0.849111
   si1_1   Si     0.311381     0.714582     0.875296
   si1_1   Si     0.304630     0.737036     0.815394
   si1_1   Si     0.308354     0.757750     0.841579
   si1_1   Si     0.295394     0.743468     0.869086
   si1_1   Si     0.299118     0.764181     0.895270
   si1_1   Si     0.341024     0.763858     0.846467
   si1_1   Si     0.150599     0.278300     0.955953
   si1_1   Si     0.143848     0.300754     0.896051
   si1_1   Si     0.147572     0.321467     0.922236
   si1_1   Si     0.134613     0.307186     0.949743
   si1_1   Si     0.138337     0.327899     0.975927
   si1_1   Si     0.131586     0.350354     0.916026
   si1_1   Si     0.135310     0.371067     0.942210
   si1_1   Si     0.180242     0.327576     0.927124
   si1_1   Si     0.183966     0.348289     0.953308
   si1_1   Si     0.177215     0.370744     0.893407
   si1_1   Si     0.180939     0.391457     0.919591
   si1_1   Si     0.167980     0.377175     0.947098
   si1_1   Si     0.171704     0.397889     0.973283
   si1_1   Si     0.164953     0.420343     0.913381
   si1_1   Si     0.168677     0.441056     0.939566
   si1_1   Si     0.213609     0.397566     0.924479
   si1_1   Si     0.217333     0.418279     0.950664
   si1_1   Si     0.210583     0.440733     0.890762
   si1_1   Si     0.214307     0.461446     0.916947
   si1_1   Si     0.201347     0.447165     0.944454
   si1_1   Si     0.205071     0.467878     0.970638
   si1_1   Si     0.198320     0.490332     0.910736
   si1_1   Si     0.202044     0.511046     0.936921
   si1_1   Si     0.246977     0.467555     0.921835
   si1_1   Si     0.250700     0.488268     0.948019
   si1_1   Si     0.243950     0.510723     0.888118
   si1_1   Si     0.247674     0.531436     0.914302
   si1_1   Si     0.234714     0.517154     0.941809
   si1_1   Si     0.238438     0.537868     0.967994
   si1_1   Si     0.231687     0.560322     0.908092
   si1_1   Si     0.235411     0.581035     0.934277
   si1_1   Si     0.280344     0.537544     0.919190
   si1_1   Si     0.284068     0.558258     0.945375
   si1_1   Si     0.277317     0.580712     0.885473
   si1_1   Si     0.281041     0.601425     0.911658
   si1_1   Si     0.268081     0.587144     0.939164
   si1_1   Si     0.271805     0.607857     0.965349
   si1_1   Si     0.265054     0.630311     0.905447
   si1_1   Si     0.268778     0.651025     0.931632
   si1_1   Si     0.313711     0.607534     0.916546
   si1_1   Si     0.317435     0.628247     0.942730
   si1_1   Si     0.310684     0.650701     0.882829
   si1_1   Si     0.314408     0.671415     0.909013
   si1_1   Si     0.301448     0.657133     0.936520
   si1_1   Si     0.305172     0.677846     0.962705
   si1_1   Si     0.298421     0.700301     0.902803
   si1_1   Si     0.302145     0.721014     0.928987
   si1_1   Si     0.347078     0.677523     0.913901
   si1_1   Si     0.350802     0.698237     0.940086
   si1_1   Si     0.344051     0.720691     0.880184
   si1_1   Si     0.347775     0.741404     0.906369
   si1_1   Si     0.334815     0.727123     0.933875
   si1_1   Si     0.338539     0.747836     0.960060
   si1_1   Si     0.331788     0.770290     0.900158
   si1_1   Si     0.335512     0.791003     0.926343
   si1_1   Si     0.380445     0.747513     0.911256
   si1_1   Si     0.384169     0.768226     0.937441
   si1_1   Si     0.186296     0.241241     0.994558
   si1_1   Si     0.183269     0.284409     0.960841
   si1_1   Si     0.186993     0.305122     0.987025
   si1_1   Si     0.171007     0.334008     0.980815
   si1_1   Si     0.219663     0.311231     0.991913
   si1_1   Si     0.216636     0.354398     0.958196
   si1_1   Si     0.220360     0.375111     0.984381
   si1_1   Si     0.204374     0.403997     0.978171
   si1_1   Si     0.253030     0.381220     0.989269
   si1_1   Si     0.250003     0.424387     0.955552
   si1_1   Si     0.253727     0.445101     0.981736
   si1_1   Si     0.237741     0.473987     0.975526
   si1_1   Si     0.286397     0.451209     0.986624
   si1_1   Si     0.283371     0.494377     0.952907
   si1_1   Si     0.287094     0.515090     0.979092
   si1_1   Si     0.271108     0.543976     0.972882
   si1_1   Si     0.274832     0.564689     0.999066
   si1_1   Si     0.319765     0.521199     0.983980
   si1_1   Si     0.316738     0.564366     0.950263
   si1_1   Si     0.320462     0.585080     0.976447
   si1_1   Si     0.304475     0.613966     0.970237
   si1_1   Si     0.308199     0.634679     0.996422
   si1_1   Si     0.353132     0.591188     0.981335
   si1_1   Si     0.350105     0.634356     0.947618
   si1_1   Si     0.353829     0.655069     0.973803
   si1_1   Si     0.337842     0.683955     0.967592
   si1_1   Si     0.341566     0.704668     0.993777
   si1_1   Si     0.386499     0.661178     0.978691
   si1_1   Si     0.383472     0.704345     0.944974
   si1_1   Si     0.387196     0.725058     0.971158
   si1_1   Si     0.374236     0.710777     0.998665
   si1_1   Si     0.371209     0.753945     0.964948
   si1_1   Si     0.374933     0.774658     0.991133
   si1_1   Si     0.419866     0.731167     0.976046
   si1_1   Si     0.043508     0.389477     0.840138
   si1_1   Si     0.047232     0.410190     0.866322
   si1_1   Si     0.034273     0.395908     0.893829
   si1_1   Si     0.037997     0.416622     0.920014
   si1_1   Si     0.082929     0.373131     0.904927
   si1_1   Si     0.086653     0.393844     0.931112
   si1_1   Si     0.079902     0.416298     0.871210
   si1_1   Si     0.083626     0.437012     0.897395
   si1_1   Si     0.070667     0.422730     0.924902
   si1_1   Si     0.074391     0.443444     0.951086
   si1_1   Si     0.116296     0.443120     0.902283
   si1_1   Si     0.120020     0.463834     0.928467
   si1_1   Si     0.113269     0.486288     0.868566
   si1_1   Si     0.116993     0.507001     0.894750
   si1_1   Si     0.104034     0.492720     0.922257
   si1_1   Si     0.107758     0.513433     0.948442
   si1_1   Si     0.149663     0.513110     0.899638
   si1_1   Si     0.153387     0.533823     0.925823
   si1_1   Si     0.183031     0.583099     0.896994
   si1_1   Si     0.186755     0.603813     0.923178
   si1_1   Si     0.216398     0.653089     0.894349
   si1_1   Si     0.220122     0.673802     0.920534
   si1_1   Si     0.089680     0.350677     0.964829
   si1_1   Si     0.073694     0.379563     0.958619
   si1_1   Si     0.077418     0.400276     0.984803
   si1_1   Si     0.122350     0.356785     0.969717
   si1_1   Si     0.126074     0.377499     0.995902
   si1_1   Si     0.119323     0.399953     0.936000
   si1_1   Si     0.123047     0.420666     0.962185
   si1_1   Si     0.110088     0.406385     0.989691
   si1_1   Si     0.107061     0.449552     0.955974
   si1_1   Si     0.110785     0.470265     0.982159
   si1_1   Si     0.155717     0.426775     0.967073
   si1_1   Si     0.159441     0.447488     0.993257
   si1_1   Si     0.152690     0.469942     0.933355
   si1_1   Si     0.156414     0.490656     0.959540
   si1_1   Si     0.143455     0.476374     0.987047
   si1_1   Si     0.140428     0.519542     0.953330
   si1_1   Si     0.144152     0.540255     0.979514
   si1_1   Si     0.189084     0.496764     0.964428
   si1_1   Si     0.192808     0.517477     0.990613
   si1_1   Si     0.186057     0.539932     0.930711
   si1_1   Si     0.189781     0.560645     0.956895
   si1_1   Si     0.176822     0.546364     0.984402
   si1_1   Si     0.173795     0.589531     0.950685
   si1_1   Si     0.177519     0.610244     0.976870
   si1_1   Si     0.222451     0.566754     0.961783
   si1_1   Si     0.226175     0.587467     0.987968
   si1_1   Si     0.219425     0.609921     0.928066
   si1_1   Si     0.223148     0.630634     0.954251
   si1_1   Si     0.210189     0.616353     0.981758
   si1_1   Si     0.207162     0.659520     0.948041
   si1_1   Si     0.210886     0.680234     0.974225
   si1_1   Si     0.255819     0.636743     0.959139
   si1_1   Si     0.259542     0.657456     0.985323
   si1_1   Si     0.252792     0.679911     0.925422
   si1_1   Si     0.256516     0.700624     0.951606
   si1_1   Si     0.243556     0.686342     0.979113
   si1_1   Si     0.289186     0.706733     0.956494
   si1_1   Si     0.292910     0.727446     0.982679
   si1_1   Si     0.286159     0.749900     0.922777
   si1_1   Si     0.289883     0.770613     0.948962
   si1_1   Si     0.276923     0.756332     0.976469
   si1_1   Si     0.322553     0.776722     0.953850
   si1_1   Si     0.326277     0.797435     0.980034
   si1_1   Si     0.319526     0.819889     0.920133
   si1_1   Si     0.310290     0.826321     0.973824
   si1_1   Si     0.192111     0.453597     0.998145
   si1_1   Si     0.225478     0.523586     0.995501
   si1_1   Si     0.258845     0.593576     0.992856
   si1_1   Si     0.292213     0.663565     0.990211
   si1_1   Si     0.325580     0.733554     0.987567
   si1_1   Si     0.358947     0.803544     0.984922
   si1_1   Si     0.061431     0.429162     0.978593
   si1_1   Si     0.094798     0.499152     0.975949
   si1_1   Si     0.373292     0.464602     0.153982
   si1_1   Si     0.512134     0.593567     0.139689
   si1_1   Si     0.435922     0.581398     0.131783
   si1_1   Si     0.496477     0.564367     0.145239
   si1_1   Si     0.473577     0.568373     0.169490
   si1_1   Si     0.442713     0.529084     0.146836
   si1_1   Si     0.457920     0.539174     0.175040
   si1_1   Si     0.435021     0.543179     0.199291
   si1_1   Si     0.472676     0.530154     0.236999
   si1_1   Si     0.457019     0.500955     0.242549
   si1_1   Si     0.434119     0.504961     0.266800
   si1_1   Si     0.433218     0.466742     0.334309
   si1_1   Si     0.359710     0.569229     0.123876
   si1_1   Si     0.420265     0.552199     0.137333
   si1_1   Si     0.397365     0.556204     0.161584
   si1_1   Si     0.366501     0.516915     0.138929
   si1_1   Si     0.427056     0.499885     0.152386
   si1_1   Si     0.404157     0.503890     0.176637
   si1_1   Si     0.381708     0.527005     0.167134
   si1_1   Si     0.358809     0.531010     0.191385
   si1_1   Si     0.419363     0.513980     0.204841
   si1_1   Si     0.396464     0.517986     0.229093
   si1_1   Si     0.388499     0.474691     0.182187
   si1_1   Si     0.365600     0.478697     0.206438
   si1_1   Si     0.403255     0.465672     0.244146
   si1_1   Si     0.380807     0.488787     0.234642
   si1_1   Si     0.357907     0.492792     0.258894
   si1_1   Si     0.418462     0.475762     0.272350
   si1_1   Si     0.395563     0.479767     0.296601
   si1_1   Si     0.357006     0.454574     0.326402
   si1_1   Si     0.283498     0.557060     0.115970
   si1_1   Si     0.344052     0.540030     0.129426
   si1_1   Si     0.321153     0.544035     0.153677
   si1_1   Si     0.290289     0.504746     0.131023
   si1_1   Si     0.350844     0.487716     0.144479
   si1_1   Si     0.327944     0.491722     0.168730
   si1_1   Si     0.305496     0.514836     0.159227
   si1_1   Si     0.282596     0.518842     0.183478
   si1_1   Si     0.343151     0.501811     0.196935
   si1_1   Si     0.320252     0.505817     0.221186
   si1_1   Si     0.312287     0.462523     0.174280
   si1_1   Si     0.327043     0.453503     0.236239
   si1_1   Si     0.304595     0.476618     0.226736
   si1_1   Si     0.281695     0.480623     0.250987
   si1_1   Si     0.342250     0.463593     0.264443
   si1_1   Si     0.319351     0.467598     0.288695
   si1_1   Si     0.267840     0.527861     0.121520
   si1_1   Si     0.244941     0.531866     0.145771
   si1_1   Si     0.266939     0.489643     0.189028
   si1_1   Si     0.505343     0.645880     0.124636
   si1_1   Si     0.565897     0.628850     0.138093
   si1_1   Si     0.542998     0.632855     0.162344
   si1_1   Si     0.520549     0.655970     0.152841
   si1_1   Si     0.497650     0.659975     0.177092
   si1_1   Si     0.527341     0.603656     0.167894
   si1_1   Si     0.504441     0.607662     0.192145
   si1_1   Si     0.542097     0.594637     0.229853
   si1_1   Si     0.519648     0.617752     0.220349
   si1_1   Si     0.496749     0.621757     0.244601
   si1_1   Si     0.557304     0.604727     0.258057
   si1_1   Si     0.534404     0.608732     0.282308
   si1_1   Si     0.526440     0.565438     0.235402
   si1_1   Si     0.503540     0.569443     0.259654
   si1_1   Si     0.518747     0.579533     0.287858
   si1_1   Si     0.495848     0.583539     0.312109
   si1_1   Si     0.533503     0.570514     0.349817
   si1_1   Si     0.502639     0.531225     0.327162
   si1_1   Si     0.517846     0.541315     0.355367
   si1_1   Si     0.494946     0.545320     0.379618
   si1_1   Si     0.422339     0.686025     0.101677
   si1_1   Si     0.482894     0.668995     0.115133
   si1_1   Si     0.459995     0.673000     0.139384
   si1_1   Si     0.429131     0.633711     0.116730
   si1_1   Si     0.489685     0.616681     0.130186
   si1_1   Si     0.466786     0.620687     0.154437
   si1_1   Si     0.444337     0.643801     0.144934
   si1_1   Si     0.421438     0.647807     0.169185
   si1_1   Si     0.481993     0.630776     0.182642
   si1_1   Si     0.459094     0.634782     0.206893
   si1_1   Si     0.451129     0.591488     0.159987
   si1_1   Si     0.428229     0.595493     0.184238
   si1_1   Si     0.488784     0.578463     0.197695
   si1_1   Si     0.465885     0.582468     0.221946
   si1_1   Si     0.443436     0.605583     0.212443
   si1_1   Si     0.420537     0.609588     0.236694
   si1_1   Si     0.481092     0.592558     0.250150
   si1_1   Si     0.458192     0.596563     0.274402
   si1_1   Si     0.450227     0.553269     0.227496
   si1_1   Si     0.427328     0.557275     0.251747
   si1_1   Si     0.487883     0.540244     0.265203
   si1_1   Si     0.464984     0.544250     0.289455
   si1_1   Si     0.442535     0.567364     0.279951
   si1_1   Si     0.419636     0.571370     0.304203
   si1_1   Si     0.480190     0.554340     0.317659
   si1_1   Si     0.457291     0.558345     0.341910
   si1_1   Si     0.449326     0.515051     0.295005
   si1_1   Si     0.426427     0.519056     0.319256
   si1_1   Si     0.464082     0.506031     0.356963
   si1_1   Si     0.441634     0.529146     0.347460
   si1_1   Si     0.418734     0.533151     0.371711
   si1_1   Si     0.479289     0.516121     0.385168
   si1_1   Si     0.456390     0.520126     0.409419
   si1_1   Si     0.448425     0.476832     0.362513
   si1_1   Si     0.425526     0.480838     0.386764
   si1_1   Si     0.440732     0.490927     0.414969
   si1_1   Si     0.417833     0.494933     0.439220
   si1_1   Si     0.346127     0.673856     0.093770
   si1_1   Si     0.406682     0.656826     0.107227
   si1_1   Si     0.383783     0.660831     0.131478
   si1_1   Si     0.352919     0.621543     0.108823
   si1_1   Si     0.413473     0.604512     0.122280
   si1_1   Si     0.390574     0.608518     0.146531
   si1_1   Si     0.368125     0.631632     0.137028
   si1_1   Si     0.345226     0.635638     0.161279
   si1_1   Si     0.405781     0.618608     0.174735
   si1_1   Si     0.382881     0.622613     0.198986
   si1_1   Si     0.374917     0.579319     0.152081
   si1_1   Si     0.352017     0.583324     0.176332
   si1_1   Si     0.412572     0.566294     0.189788
   si1_1   Si     0.389673     0.570299     0.214039
   si1_1   Si     0.367224     0.593414     0.204536
   si1_1   Si     0.344325     0.597419     0.228787
   si1_1   Si     0.404879     0.580389     0.242244
   si1_1   Si     0.381980     0.584395     0.266495
   si1_1   Si     0.374015     0.541100     0.219589
   si1_1   Si     0.351116     0.545106     0.243841
   si1_1   Si     0.411671     0.528075     0.257297
   si1_1   Si     0.388771     0.532081     0.281548
   si1_1   Si     0.366323     0.555196     0.272045
   si1_1   Si     0.343423     0.559201     0.296296
   si1_1   Si     0.403978     0.542171     0.309753
   si1_1   Si     0.381079     0.546176     0.334004
   si1_1   Si     0.373114     0.502882     0.287098
   si1_1   Si     0.350215     0.506887     0.311349
   si1_1   Si     0.410770     0.489857     0.324806
   si1_1   Si     0.387870     0.493862     0.349057
   si1_1   Si     0.365422     0.516977     0.339554
   si1_1   Si     0.342522     0.520982     0.363805
   si1_1   Si     0.403077     0.503952     0.377261
   si1_1   Si     0.380178     0.507958     0.401512
   si1_1   Si     0.372213     0.464663     0.354607
   si1_1   Si     0.349314     0.468669     0.378858
   si1_1   Si     0.409868     0.451639     0.392314
   si1_1   Si     0.386969     0.455644     0.416565
   si1_1   Si     0.364520     0.478759     0.407062
   si1_1   Si     0.341621     0.482764     0.431313
   si1_1   Si     0.402176     0.465734     0.444770
   si1_1   Si     0.379276     0.469739     0.469021
   si1_1   Si     0.363619     0.440540     0.474571
   si1_1   Si     0.340720     0.444546     0.498822
   si1_1   Si     0.269915     0.661687     0.085864
   si1_1   Si     0.330470     0.644657     0.099320
   si1_1   Si     0.307571     0.648663     0.123571
   si1_1   Si     0.276706     0.609374     0.100917
   si1_1   Si     0.337261     0.592344     0.114373
   si1_1   Si     0.314362     0.596349     0.138624
   si1_1   Si     0.291913     0.619464     0.129121
   si1_1   Si     0.269014     0.623469     0.153372
   si1_1   Si     0.329569     0.606439     0.166829
   si1_1   Si     0.306669     0.610444     0.191080
   si1_1   Si     0.298704     0.567150     0.144174
   si1_1   Si     0.275805     0.571155     0.168425
   si1_1   Si     0.336360     0.554125     0.181882
   si1_1   Si     0.313461     0.558130     0.206133
   si1_1   Si     0.291012     0.581245     0.196630
   si1_1   Si     0.268113     0.585251     0.220881
   si1_1   Si     0.328667     0.568220     0.234337
   si1_1   Si     0.305768     0.572226     0.258589
   si1_1   Si     0.297803     0.528931     0.211683
   si1_1   Si     0.274904     0.532937     0.235934
   si1_1   Si     0.335459     0.515907     0.249390
   si1_1   Si     0.312559     0.519912     0.273642
   si1_1   Si     0.290111     0.543027     0.264138
   si1_1   Si     0.267211     0.547032     0.288390
   si1_1   Si     0.327766     0.530002     0.301846
   si1_1   Si     0.304867     0.534007     0.326097
   si1_1   Si     0.296902     0.490713     0.279191
   si1_1   Si     0.274003     0.494718     0.303443
   si1_1   Si     0.334557     0.477688     0.316899
   si1_1   Si     0.311658     0.481694     0.341150
   si1_1   Si     0.289209     0.504808     0.331647
   si1_1   Si     0.266310     0.508814     0.355898
   si1_1   Si     0.326865     0.491783     0.369355
   si1_1   Si     0.303966     0.495789     0.393606
   si1_1   Si     0.296001     0.452495     0.346700
   si1_1   Si     0.273101     0.456500     0.370951
   si1_1   Si     0.333656     0.439470     0.384408
   si1_1   Si     0.310757     0.443475     0.408659
   si1_1   Si     0.288308     0.466590     0.399156
   si1_1   Si     0.265409     0.470595     0.423407
   si1_1   Si     0.325964     0.453565     0.436863
   si1_1   Si     0.303064     0.457570     0.461114
   si1_1   Si     0.287407     0.428371     0.466664
   si1_1   Si     0.264508     0.432377     0.490915
   si1_1   Si     0.193703     0.649519     0.077957
   si1_1   Si     0.254258     0.632488     0.091414
   si1_1   Si     0.231358     0.636494     0.115665
   si1_1   Si     0.200494     0.597205     0.093010
   si1_1   Si     0.261049     0.580175     0.106467
   si1_1   Si     0.238150     0.584180     0.130718
   si1_1   Si     0.215701     0.607295     0.121215
   si1_1   Si     0.192802     0.611300     0.145466
   si1_1   Si     0.253357     0.594270     0.158922
   si1_1   Si     0.230457     0.598275     0.183173
   si1_1   Si     0.222492     0.554981     0.136268
   si1_1   Si     0.199593     0.558987     0.160519
   si1_1   Si     0.260148     0.541956     0.173975
   si1_1   Si     0.237249     0.545962     0.198226
   si1_1   Si     0.214800     0.569076     0.188723
   si1_1   Si     0.191901     0.573082     0.212974
   si1_1   Si     0.252455     0.556052     0.226431
   si1_1   Si     0.229556     0.560057     0.250682
   si1_1   Si     0.221591     0.516763     0.203776
   si1_1   Si     0.259247     0.503738     0.241484
   si1_1   Si     0.236347     0.507743     0.265735
   si1_1   Si     0.213899     0.530858     0.256232
   si1_1   Si     0.190999     0.534863     0.280483
   si1_1   Si     0.251554     0.517833     0.293939
   si1_1   Si     0.228655     0.521838     0.318191
   si1_1   Si     0.250653     0.479615     0.361448
   si1_1   Si     0.227753     0.483620     0.385699
   si1_1   Si     0.178046     0.620320     0.083507
   si1_1   Si     0.184837     0.568006     0.098560
   si1_1   Si     0.177144     0.582101     0.151016
   si1_1   Si     0.154245     0.586107     0.175267
   si1_1   Si     0.511956     0.631847     0.272805
   si1_1   Si     0.489056     0.635852     0.297056
   si1_1   Si     0.511054     0.593628     0.340314
   si1_1   Si     0.488155     0.597634     0.364565
   si1_1   Si     0.525811     0.584609     0.402272
   si1_1   Si     0.503362     0.607724     0.392769
   si1_1   Si     0.480463     0.611729     0.417020
   si1_1   Si     0.510153     0.555410     0.407822
   si1_1   Si     0.487254     0.559415     0.432073
   si1_1   Si     0.479561     0.573511     0.484529
   si1_1   Si     0.437546     0.696115     0.129881
   si1_1   Si     0.414647     0.700120     0.154132
   si1_1   Si     0.452302     0.687096     0.191840
   si1_1   Si     0.436645     0.657896     0.197390
   si1_1   Si     0.413746     0.661902     0.221641
   si1_1   Si     0.474300     0.644872     0.235097
   si1_1   Si     0.451401     0.648877     0.259349
   si1_1   Si     0.428952     0.671992     0.249845
   si1_1   Si     0.406053     0.675997     0.274097
   si1_1   Si     0.466608     0.658967     0.287553
   si1_1   Si     0.443708     0.662972     0.311804
   si1_1   Si     0.435744     0.619678     0.264898
   si1_1   Si     0.412844     0.623683     0.289150
   si1_1   Si     0.473399     0.606653     0.302606
   si1_1   Si     0.450500     0.610659     0.326857
   si1_1   Si     0.428051     0.633773     0.317354
   si1_1   Si     0.405152     0.637779     0.341605
   si1_1   Si     0.465706     0.620748     0.355062
   si1_1   Si     0.442807     0.624754     0.379313
   si1_1   Si     0.434842     0.581460     0.332407
   si1_1   Si     0.411943     0.585465     0.356658
   si1_1   Si     0.472498     0.568435     0.370115
   si1_1   Si     0.449598     0.572440     0.394366
   si1_1   Si     0.427150     0.595555     0.384863
   si1_1   Si     0.404251     0.599560     0.409114
   si1_1   Si     0.464805     0.582530     0.422570
   si1_1   Si     0.441906     0.586535     0.446821
   si1_1   Si     0.433941     0.543241     0.399916
   si1_1   Si     0.411042     0.547247     0.424167
   si1_1   Si     0.471597     0.530216     0.437623
   si1_1   Si     0.448697     0.534222     0.461874
   si1_1   Si     0.426249     0.557336     0.452371
   si1_1   Si     0.403349     0.561342     0.476622
   si1_1   Si     0.463904     0.544312     0.490079
   si1_1   Si     0.441005     0.548317     0.514330
   si1_1   Si     0.433040     0.505023     0.467424
   si1_1   Si     0.410141     0.509028     0.491675
   si1_1   Si     0.425347     0.519118     0.519880
   si1_1   Si     0.332545     0.778484     0.063664
   si1_1   Si     0.339336     0.726170     0.078717
   si1_1   Si     0.399891     0.709140     0.092174
   si1_1   Si     0.376991     0.713145     0.116425
   si1_1   Si     0.354543     0.736260     0.106922
   si1_1   Si     0.331643     0.740265     0.131173
   si1_1   Si     0.392198     0.723235     0.144629
   si1_1   Si     0.369299     0.727240     0.168880
   si1_1   Si     0.361334     0.683946     0.121975
   si1_1   Si     0.338435     0.687952     0.146226
   si1_1   Si     0.398989     0.670921     0.159682
   si1_1   Si     0.376090     0.674927     0.183933
   si1_1   Si     0.353641     0.698041     0.174430
   si1_1   Si     0.330742     0.702047     0.198681
   si1_1   Si     0.391297     0.685017     0.212138
   si1_1   Si     0.368398     0.689022     0.236389
   si1_1   Si     0.360433     0.645728     0.189483
   si1_1   Si     0.337533     0.649733     0.213734
   si1_1   Si     0.398088     0.632703     0.227191
   si1_1   Si     0.375189     0.636708     0.251442
   si1_1   Si     0.352740     0.659823     0.241939
   si1_1   Si     0.329841     0.663828     0.266190
   si1_1   Si     0.390396     0.646798     0.279646
   si1_1   Si     0.367496     0.650804     0.303898
   si1_1   Si     0.359532     0.607509     0.256992
   si1_1   Si     0.336632     0.611515     0.281243
   si1_1   Si     0.397187     0.594484     0.294699
   si1_1   Si     0.374288     0.598490     0.318951
   si1_1   Si     0.351839     0.621604     0.309447
   si1_1   Si     0.328940     0.625610     0.333699
   si1_1   Si     0.389494     0.608580     0.347155
   si1_1   Si     0.366595     0.612585     0.371406
   si1_1   Si     0.358630     0.569291     0.324501
   si1_1   Si     0.335731     0.573296     0.348752
   si1_1   Si     0.396286     0.556266     0.362208
   si1_1   Si     0.373386     0.560271     0.386459
   si1_1   Si     0.350938     0.583386     0.376956
   si1_1   Si     0.328038     0.587391     0.401207
   si1_1   Si     0.388593     0.570361     0.414664
   si1_1   Si     0.365694     0.574367     0.438915
   si1_1   Si     0.357729     0.531072     0.392009
   si1_1   Si     0.334830     0.535078     0.416260
   si1_1   Si     0.395384     0.518047     0.429717
   si1_1   Si     0.372485     0.522053     0.453968
   si1_1   Si     0.350036     0.545168     0.444465
   si1_1   Si     0.327137     0.549173     0.468716
   si1_1   Si     0.387692     0.532143     0.482172
   si1_1   Si     0.364793     0.536148     0.506423
   si1_1   Si     0.356828     0.492854     0.459518
   si1_1   Si     0.333928     0.496859     0.483769
   si1_1   Si     0.394483     0.479829     0.497225
   si1_1   Si     0.371584     0.483834     0.521477
   si1_1   Si     0.349135     0.506949     0.511973
   si1_1   Si     0.326236     0.510954     0.536225
   si1_1   Si     0.294889     0.791509     0.025957
   si1_1   Si     0.256333     0.766315     0.055758
   si1_1   Si     0.316887     0.749285     0.069214
   si1_1   Si     0.293988     0.753290     0.093465
   si1_1   Si     0.263124     0.714001     0.070811
   si1_1   Si     0.323679     0.696971     0.084267
   si1_1   Si     0.300779     0.700976     0.108518
   si1_1   Si     0.278331     0.724091     0.099015
   si1_1   Si     0.255431     0.728096     0.123266
   si1_1   Si     0.315986     0.711066     0.136723
   si1_1   Si     0.293087     0.715072     0.160974
   si1_1   Si     0.285122     0.671777     0.114068
   si1_1   Si     0.262223     0.675783     0.138319
   si1_1   Si     0.322777     0.658752     0.151776
   si1_1   Si     0.299878     0.662758     0.176027
   si1_1   Si     0.277429     0.685873     0.166524
   si1_1   Si     0.254530     0.689878     0.190775
   si1_1   Si     0.315085     0.672848     0.204231
   si1_1   Si     0.292185     0.676853     0.228482
   si1_1   Si     0.284221     0.633559     0.181577
   si1_1   Si     0.261321     0.637564     0.205828
   si1_1   Si     0.321876     0.620534     0.219284
   si1_1   Si     0.298977     0.624539     0.243535
   si1_1   Si     0.276528     0.647654     0.234032
   si1_1   Si     0.253629     0.651659     0.258283
   si1_1   Si     0.314184     0.634629     0.271740
   si1_1   Si     0.291284     0.638635     0.295991
   si1_1   Si     0.283319     0.595340     0.249085
   si1_1   Si     0.260420     0.599346     0.273336
   si1_1   Si     0.320975     0.582316     0.286793
   si1_1   Si     0.298076     0.586321     0.311044
   si1_1   Si     0.275627     0.609436     0.301541
   si1_1   Si     0.252728     0.613441     0.325792
   si1_1   Si     0.313282     0.596411     0.339249
   si1_1   Si     0.290383     0.600416     0.363500
   si1_1   Si     0.282418     0.557122     0.316594
   si1_1   Si     0.259519     0.561127     0.340845
   si1_1   Si     0.320074     0.544097     0.354302
   si1_1   Si     0.297174     0.548103     0.378553
   si1_1   Si     0.274726     0.571217     0.369050
   si1_1   Si     0.251826     0.575223     0.393301
   si1_1   Si     0.312381     0.558192     0.406757
   si1_1   Si     0.289482     0.562198     0.431008
   si1_1   Si     0.281517     0.518903     0.384103
   si1_1   Si     0.258618     0.522909     0.408354
   si1_1   Si     0.319172     0.505879     0.421810
   si1_1   Si     0.296273     0.509884     0.446061
   si1_1   Si     0.273824     0.532999     0.436558
   si1_1   Si     0.250925     0.537004     0.460809
   si1_1   Si     0.311480     0.519974     0.474266
   si1_1   Si     0.288580     0.523979     0.498517
   si1_1   Si     0.280616     0.480685     0.451611
   si1_1   Si     0.257716     0.484690     0.475862
   si1_1   Si     0.318271     0.467660     0.489319
   si1_1   Si     0.295372     0.471666     0.513570
   si1_1   Si     0.272923     0.494780     0.504067
   si1_1   Si     0.250024     0.498786     0.528318
   si1_1   Si     0.310579     0.481755     0.541774
   si1_1   Si     0.279714     0.442467     0.519120
   si1_1   Si     0.240675     0.737116     0.061307
   si1_1   Si     0.217776     0.741121     0.085559
   si1_1   Si     0.247466     0.684802     0.076360
   si1_1   Si     0.224567     0.688808     0.100612
   si1_1   Si     0.202119     0.711922     0.091108
   si1_1   Si     0.239774     0.698897     0.128816
   si1_1   Si     0.216875     0.702903     0.153067
   si1_1   Si     0.208910     0.659608     0.106162
   si1_1   Si     0.186010     0.663614     0.130413
   si1_1   Si     0.246565     0.646584     0.143869
   si1_1   Si     0.223666     0.650589     0.168120
   si1_1   Si     0.201217     0.673704     0.158617
   si1_1   Si     0.178318     0.677709     0.182868
   si1_1   Si     0.238873     0.660679     0.196325
   si1_1   Si     0.215973     0.664684     0.220576
   si1_1   Si     0.208009     0.621390     0.173670
   si1_1   Si     0.185109     0.625395     0.197921
   si1_1   Si     0.245664     0.608365     0.211378
   si1_1   Si     0.222765     0.612371     0.235629
   si1_1   Si     0.200316     0.635485     0.226126
   si1_1   Si     0.177417     0.639491     0.250377
   si1_1   Si     0.237971     0.622460     0.263833
   si1_1   Si     0.215072     0.626466     0.288084
   si1_1   Si     0.207107     0.583172     0.241179
   si1_1   Si     0.184208     0.587177     0.265430
   si1_1   Si     0.244763     0.570147     0.278886
   si1_1   Si     0.221863     0.574152     0.303138
   si1_1   Si     0.199415     0.597267     0.293634
   si1_1   Si     0.176515     0.601272     0.317886
   si1_1   Si     0.237070     0.584242     0.331342
   si1_1   Si     0.214171     0.588247     0.355593
   si1_1   Si     0.206206     0.544953     0.308687
   si1_1   Si     0.183307     0.548959     0.332939
   si1_1   Si     0.243861     0.531928     0.346395
   si1_1   Si     0.220962     0.535934     0.370646
   si1_1   Si     0.198514     0.559048     0.361143
   si1_1   Si     0.175614     0.563054     0.385394
   si1_1   Si     0.236169     0.546024     0.398851
   si1_1   Si     0.213270     0.550029     0.423102
   si1_1   Si     0.205305     0.506735     0.376196
   si1_1   Si     0.182405     0.510740     0.400447
   si1_1   Si     0.242960     0.493710     0.413904
   si1_1   Si     0.220061     0.497715     0.438155
   si1_1   Si     0.197612     0.520830     0.428652
   si1_1   Si     0.174713     0.524835     0.452903
   si1_1   Si     0.235268     0.507805     0.466359
   si1_1   Si     0.212368     0.511810     0.490610
   si1_1   Si     0.242059     0.455491     0.481412
   si1_1   Si     0.219160     0.459497     0.505663
   si1_1   Si     0.196711     0.482611     0.496160
   si1_1   Si     0.173812     0.486617     0.520411
   si1_1   Si     0.234366     0.469587     0.533868
   si1_1   Si     0.170353     0.634415     0.135963
   si1_1   Si     0.162661     0.648510     0.188418
   si1_1   Si     0.139761     0.652516     0.212669
   si1_1   Si     0.169452     0.596196     0.203471
   si1_1   Si     0.146553     0.600202     0.227722
   si1_1   Si     0.124104     0.623316     0.218219
   si1_1   Si     0.161759     0.610292     0.255927
   si1_1   Si     0.138860     0.614297     0.280178
   si1_1   Si     0.168551     0.557978     0.270980
   si1_1   Si     0.145651     0.561983     0.295231
   si1_1   Si     0.123203     0.585098     0.285728
   si1_1   Si     0.100303     0.589103     0.309979
   si1_1   Si     0.160858     0.572073     0.323435
   si1_1   Si     0.137959     0.576079     0.347687
   si1_1   Si     0.159957     0.533855     0.390944
   si1_1   Si     0.137058     0.537860     0.415195
   si1_1   Si     0.420359     0.647869     0.369810
   si1_1   Si     0.397459     0.651874     0.394061
   si1_1   Si     0.458014     0.634844     0.407517
   si1_1   Si     0.435115     0.638849     0.431768
   si1_1   Si     0.412666     0.661964     0.422265
   si1_1   Si     0.389767     0.665969     0.446516
   si1_1   Si     0.419457     0.609650     0.437318
   si1_1   Si     0.396558     0.613655     0.461569
   si1_1   Si     0.457113     0.596625     0.475026
   si1_1   Si     0.434213     0.600631     0.499277
   si1_1   Si     0.411765     0.623745     0.489774
   si1_1   Si     0.388865     0.627751     0.514025
   si1_1   Si     0.449420     0.610720     0.527481
   si1_1   Si     0.426521     0.614726     0.551733
   si1_1   Si     0.418556     0.571432     0.504827
   si1_1   Si     0.395657     0.575437     0.529078
   si1_1   Si     0.456211     0.558407     0.542534
   si1_1   Si     0.410863     0.585527     0.557282
   si1_1   Si     0.346850     0.750355     0.159377
   si1_1   Si     0.323951     0.754360     0.183628
   si1_1   Si     0.345949     0.712137     0.226886
   si1_1   Si     0.323050     0.716142     0.251137
   si1_1   Si     0.383604     0.699112     0.264593
   si1_1   Si     0.360705     0.703117     0.288845
   si1_1   Si     0.338256     0.726232     0.279341
   si1_1   Si     0.315357     0.730237     0.303593
   si1_1   Si     0.345048     0.673918     0.294394
   si1_1   Si     0.322148     0.677924     0.318646
   si1_1   Si     0.382703     0.660893     0.332102
   si1_1   Si     0.359804     0.664899     0.356353
   si1_1   Si     0.337355     0.688013     0.346850
   si1_1   Si     0.314456     0.692019     0.371101
   si1_1   Si     0.375011     0.674989     0.384558
   si1_1   Si     0.352111     0.678994     0.408809
   si1_1   Si     0.344146     0.635700     0.361903
   si1_1   Si     0.321247     0.639705     0.386154
   si1_1   Si     0.381802     0.622675     0.399611
   si1_1   Si     0.358903     0.626680     0.423862
   si1_1   Si     0.336454     0.649795     0.414359
   si1_1   Si     0.313555     0.653800     0.438610
   si1_1   Si     0.374109     0.636770     0.452066
   si1_1   Si     0.351210     0.640776     0.476317
   si1_1   Si     0.343245     0.597481     0.429412
   si1_1   Si     0.320346     0.601487     0.453663
   si1_1   Si     0.380901     0.584456     0.467119
   si1_1   Si     0.358001     0.588462     0.491370
   si1_1   Si     0.335553     0.611576     0.481867
   si1_1   Si     0.312653     0.615582     0.506118
   si1_1   Si     0.373208     0.598552     0.519575
   si1_1   Si     0.350309     0.602557     0.543826
   si1_1   Si     0.342344     0.559263     0.496920
   si1_1   Si     0.319445     0.563268     0.521171
   si1_1   Si     0.379999     0.546238     0.534628
   si1_1   Si     0.357100     0.550243     0.558879
   si1_1   Si     0.334651     0.573358     0.549376
   si1_1   Si     0.311752     0.577363     0.573627
   si1_1   Si     0.249541     0.818629     0.040704
   si1_1   Si     0.271539     0.776405     0.083962
   si1_1   Si     0.248640     0.780410     0.108213
   si1_1   Si     0.309195     0.763380     0.121670
   si1_1   Si     0.286295     0.767385     0.145921
   si1_1   Si     0.263847     0.790500     0.136418
   si1_1   Si     0.240947     0.794505     0.160669
   si1_1   Si     0.278603     0.781481     0.198376
   si1_1   Si     0.270638     0.738186     0.151471
   si1_1   Si     0.247739     0.742192     0.175722
   si1_1   Si     0.308293     0.725161     0.189178
   si1_1   Si     0.285394     0.729167     0.213429
   si1_1   Si     0.262946     0.752281     0.203926
   si1_1   Si     0.240046     0.756287     0.228177
   si1_1   Si     0.300601     0.739257     0.241634
   si1_1   Si     0.277702     0.743262     0.265885
   si1_1   Si     0.269737     0.699968     0.218979
   si1_1   Si     0.246838     0.703973     0.243230
   si1_1   Si     0.307392     0.686943     0.256687
   si1_1   Si     0.284493     0.690948     0.280938
   si1_1   Si     0.262044     0.714063     0.271435
   si1_1   Si     0.239145     0.718068     0.295686
   si1_1   Si     0.299700     0.701038     0.309142
   si1_1   Si     0.276800     0.705044     0.333394
   si1_1   Si     0.268836     0.661749     0.286488
   si1_1   Si     0.245936     0.665755     0.310739
   si1_1   Si     0.306491     0.648725     0.324195
   si1_1   Si     0.283592     0.652730     0.348447
   si1_1   Si     0.261143     0.675845     0.338943
   si1_1   Si     0.238244     0.679850     0.363195
   si1_1   Si     0.298798     0.662820     0.376651
   si1_1   Si     0.275899     0.666825     0.400902
   si1_1   Si     0.267934     0.623531     0.353997
   si1_1   Si     0.245035     0.627536     0.378248
   si1_1   Si     0.305590     0.610506     0.391704
   si1_1   Si     0.282690     0.614511     0.415955
   si1_1   Si     0.260242     0.637626     0.406452
   si1_1   Si     0.237342     0.641632     0.430703
   si1_1   Si     0.297897     0.624601     0.444160
   si1_1   Si     0.274998     0.628607     0.468411
   si1_1   Si     0.267033     0.585312     0.421505
   si1_1   Si     0.244134     0.589318     0.445756
   si1_1   Si     0.304688     0.572288     0.459213
   si1_1   Si     0.281789     0.576293     0.483464
   si1_1   Si     0.259341     0.599408     0.473961
   si1_1   Si     0.236441     0.603413     0.498212
   si1_1   Si     0.296996     0.586383     0.511668
   si1_1   Si     0.274097     0.590388     0.535919
   si1_1   Si     0.266132     0.547094     0.489014
   si1_1   Si     0.243233     0.551099     0.513265
   si1_1   Si     0.303787     0.534069     0.526721
   si1_1   Si     0.280888     0.538075     0.550973
   si1_1   Si     0.258439     0.561189     0.541469
   si1_1   Si     0.235540     0.565195     0.565721
   si1_1   Si     0.265231     0.508876     0.556522
   si1_1   Si     0.233884     0.789430     0.046254
   si1_1   Si     0.226191     0.803525     0.098710
   si1_1   Si     0.232983     0.751211     0.113763
   si1_1   Si     0.210083     0.755216     0.138014
   si1_1   Si     0.225290     0.765306     0.166219
   si1_1   Si     0.202391     0.769312     0.190470
   si1_1   Si     0.194426     0.726017     0.143564
   si1_1   Si     0.232081     0.712993     0.181272
   si1_1   Si     0.209182     0.716998     0.205523
   si1_1   Si     0.186733     0.740113     0.196020
   si1_1   Si     0.163834     0.744118     0.220271
   si1_1   Si     0.224389     0.727088     0.233727
   si1_1   Si     0.201490     0.731093     0.257978
   si1_1   Si     0.193525     0.687799     0.211073
   si1_1   Si     0.170625     0.691804     0.235324
   si1_1   Si     0.231180     0.674774     0.248780
   si1_1   Si     0.208281     0.678780     0.273031
   si1_1   Si     0.185832     0.701894     0.263528
   si1_1   Si     0.162933     0.705900     0.287779
   si1_1   Si     0.223488     0.688869     0.301236
   si1_1   Si     0.200588     0.692875     0.325487
   si1_1   Si     0.192623     0.649581     0.278581
   si1_1   Si     0.169724     0.653586     0.302832
   si1_1   Si     0.230279     0.636556     0.316289
   si1_1   Si     0.207380     0.640561     0.340540
   si1_1   Si     0.184931     0.663676     0.331037
   si1_1   Si     0.162032     0.667681     0.355288
   si1_1   Si     0.222586     0.650651     0.368744
   si1_1   Si     0.199687     0.654656     0.392996
   si1_1   Si     0.191722     0.611362     0.346090
   si1_1   Si     0.168823     0.615367     0.370341
   si1_1   Si     0.229378     0.598337     0.383798
   si1_1   Si     0.206478     0.602343     0.408049
   si1_1   Si     0.184030     0.625457     0.398546
   si1_1   Si     0.161130     0.629463     0.422797
   si1_1   Si     0.221685     0.612432     0.436253
   si1_1   Si     0.198786     0.616438     0.460504
   si1_1   Si     0.190821     0.573144     0.413599
   si1_1   Si     0.167922     0.577149     0.437850
   si1_1   Si     0.228476     0.560119     0.451306
   si1_1   Si     0.205577     0.564124     0.475557
   si1_1   Si     0.183128     0.587239     0.466054
   si1_1   Si     0.160229     0.591244     0.490305
   si1_1   Si     0.220784     0.574214     0.503762
   si1_1   Si     0.197885     0.578219     0.528013
   si1_1   Si     0.189920     0.534925     0.481107
   si1_1   Si     0.167020     0.538931     0.505358
   si1_1   Si     0.227575     0.521900     0.518815
   si1_1   Si     0.204676     0.525906     0.543066
   si1_1   Si     0.182227     0.549020     0.533563
   si1_1   Si     0.159328     0.553026     0.557814
   si1_1   Si     0.219883     0.535996     0.571270
   si1_1   Si     0.189018     0.496707     0.548616
   si1_1   Si     0.154968     0.662605     0.240874
   si1_1   Si     0.132069     0.666611     0.265125
   si1_1   Si     0.147276     0.676701     0.293329
   si1_1   Si     0.124376     0.680706     0.317580
   si1_1   Si     0.116411     0.637412     0.270675
   si1_1   Si     0.154067     0.624387     0.308382
   si1_1   Si     0.131167     0.628392     0.332634
   si1_1   Si     0.108719     0.651507     0.323130
   si1_1   Si     0.146374     0.638482     0.360838
   si1_1   Si     0.123475     0.642488     0.385089
   si1_1   Si     0.115510     0.599193     0.338183
   si1_1   Si     0.092611     0.603199     0.362435
   si1_1   Si     0.153166     0.586168     0.375891
   si1_1   Si     0.130266     0.590174     0.400142
   si1_1   Si     0.107818     0.613288     0.390639
   si1_1   Si     0.084918     0.617294     0.414890
   si1_1   Si     0.145473     0.600264     0.428347
   si1_1   Si     0.122574     0.604269     0.452598
   si1_1   Si     0.114609     0.560975     0.405692
   si1_1   Si     0.091710     0.564980     0.429943
   si1_1   Si     0.152264     0.547950     0.443400
   si1_1   Si     0.129365     0.551955     0.467651
   si1_1   Si     0.106916     0.575070     0.458148
   si1_1   Si     0.084017     0.579075     0.482399
   si1_1   Si     0.144572     0.562045     0.495855
   si1_1   Si     0.121672     0.566051     0.520106
   si1_1   Si     0.151363     0.509732     0.510908
   si1_1   Si     0.128464     0.513737     0.535159
   si1_1   Si     0.106015     0.536852     0.525656
   si1_1   Si     0.069261     0.588095     0.420440
   si1_1   Si     0.404072     0.637841     0.542229
   si1_1   Si     0.381173     0.641846     0.566481
   si1_1   Si     0.329663     0.702109     0.399306
   si1_1   Si     0.306763     0.706114     0.423557
   si1_1   Si     0.328761     0.663890     0.466814
   si1_1   Si     0.305862     0.667896     0.491065
   si1_1   Si     0.366417     0.650865     0.504522
   si1_1   Si     0.343517     0.654871     0.528773
   si1_1   Si     0.321069     0.677985     0.519270
   si1_1   Si     0.298169     0.681991     0.543521
   si1_1   Si     0.335825     0.668966     0.581229
   si1_1   Si     0.327860     0.625672     0.534323
   si1_1   Si     0.304961     0.629677     0.558574
   si1_1   Si     0.365516     0.612647     0.572030
   si1_1   Si     0.320168     0.639767     0.586778
   si1_1   Si     0.255253     0.766377     0.256382
   si1_1   Si     0.232354     0.770382     0.280633
   si1_1   Si     0.292908     0.753352     0.294089
   si1_1   Si     0.270009     0.757357     0.318341
   si1_1   Si     0.254352     0.728158     0.323890
   si1_1   Si     0.231452     0.732164     0.348142
   si1_1   Si     0.292007     0.715133     0.361598
   si1_1   Si     0.269108     0.719139     0.385849
   si1_1   Si     0.246659     0.742254     0.376346
   si1_1   Si     0.223760     0.746259     0.400597
   si1_1   Si     0.284315     0.729229     0.414054
   si1_1   Si     0.261415     0.733234     0.438305
   si1_1   Si     0.253450     0.689940     0.391399
   si1_1   Si     0.230551     0.693945     0.415650
   si1_1   Si     0.291106     0.676915     0.429107
   si1_1   Si     0.268207     0.680920     0.453358
   si1_1   Si     0.245758     0.704035     0.443855
   si1_1   Si     0.222859     0.708040     0.468106
   si1_1   Si     0.283413     0.691010     0.481562
   si1_1   Si     0.260514     0.695016     0.505813
   si1_1   Si     0.252549     0.651721     0.458908
   si1_1   Si     0.229650     0.655727     0.483159
   si1_1   Si     0.290205     0.638697     0.496615
   si1_1   Si     0.267305     0.642702     0.520866
   si1_1   Si     0.244857     0.665817     0.511363
   si1_1   Si     0.221957     0.669822     0.535614
   si1_1   Si     0.282512     0.652792     0.549071
   si1_1   Si     0.259613     0.656797     0.573322
   si1_1   Si     0.251648     0.613503     0.526416
   si1_1   Si     0.228749     0.617508     0.550667
   si1_1   Si     0.289303     0.600478     0.564124
   si1_1   Si     0.266404     0.604483     0.588375
   si1_1   Si     0.243955     0.627598     0.578872
   si1_1   Si     0.218499     0.817620     0.151166
   si1_1   Si     0.217598     0.779402     0.218674
   si1_1   Si     0.194698     0.783407     0.242925
   si1_1   Si     0.172250     0.806522     0.233422
   si1_1   Si     0.209905     0.793497     0.271130
   si1_1   Si     0.187006     0.797502     0.295381
   si1_1   Si     0.179041     0.754208     0.248475
   si1_1   Si     0.156142     0.758213     0.272726
   si1_1   Si     0.216696     0.741183     0.286183
   si1_1   Si     0.193797     0.745189     0.310434
   si1_1   Si     0.171348     0.768303     0.300931
   si1_1   Si     0.148449     0.772309     0.325182
   si1_1   Si     0.209004     0.755278     0.338638
   si1_1   Si     0.186104     0.759284     0.362890
   si1_1   Si     0.178140     0.715989     0.315984
   si1_1   Si     0.155240     0.719995     0.340235
   si1_1   Si     0.215795     0.702965     0.353691
   si1_1   Si     0.192896     0.706970     0.377943
   si1_1   Si     0.170447     0.730085     0.368439
   si1_1   Si     0.147548     0.734090     0.392691
   si1_1   Si     0.208103     0.717060     0.406147
   si1_1   Si     0.185203     0.721065     0.430398
   si1_1   Si     0.177238     0.677771     0.383493
   si1_1   Si     0.154339     0.681776     0.407744
   si1_1   Si     0.214894     0.664746     0.421200
   si1_1   Si     0.191995     0.668752     0.445451
   si1_1   Si     0.169546     0.691866     0.435948
   si1_1   Si     0.146647     0.695872     0.460199
   si1_1   Si     0.207201     0.678841     0.473656
   si1_1   Si     0.184302     0.682847     0.497907
   si1_1   Si     0.176337     0.639553     0.451001
   si1_1   Si     0.153438     0.643558     0.475252
   si1_1   Si     0.213993     0.626528     0.488709
   si1_1   Si     0.191093     0.630533     0.512960
   si1_1   Si     0.168645     0.653648     0.503457
   si1_1   Si     0.145745     0.657653     0.527708
   si1_1   Si     0.206300     0.640623     0.541164
   si1_1   Si     0.183401     0.644628     0.565415
   si1_1   Si     0.175436     0.601334     0.518510
   si1_1   Si     0.152537     0.605340     0.542761
   si1_1   Si     0.213091     0.588309     0.556217
   si1_1   Si     0.140484     0.729014     0.278276
   si1_1   Si     0.132792     0.743110     0.330732
   si1_1   Si     0.139583     0.690796     0.345785
   si1_1   Si     0.116684     0.694801     0.370036
   si1_1   Si     0.131890     0.704891     0.398240
   si1_1   Si     0.108991     0.708896     0.422492
   si1_1   Si     0.101026     0.665602     0.375586
   si1_1   Si     0.078127     0.669608     0.399837
   si1_1   Si     0.138682     0.652577     0.413294
   si1_1   Si     0.115782     0.656583     0.437545
   si1_1   Si     0.093334     0.679697     0.428042
   si1_1   Si     0.070434     0.683703     0.452293
   si1_1   Si     0.130989     0.666673     0.465749
   si1_1   Si     0.108090     0.670678     0.490000
   si1_1   Si     0.100125     0.627384     0.443095
   si1_1   Si     0.077226     0.631389     0.467346
   si1_1   Si     0.137780     0.614359     0.480802
   si1_1   Si     0.114881     0.618364     0.505053
   si1_1   Si     0.092432     0.641479     0.495550
   si1_1   Si     0.130088     0.628454     0.533258
   si1_1   Si     0.099224     0.589165     0.510603
   si1_1   Si     0.136879     0.576140     0.548311
   si1_1   Si     0.238967     0.756349     0.428802
   si1_1   Si     0.216067     0.760354     0.453053
   si1_1   Si     0.238065     0.718130     0.496310
   si1_1   Si     0.215166     0.722136     0.520561
   si1_1   Si     0.275721     0.705105     0.534018
   si1_1   Si     0.252822     0.709111     0.558269
   si1_1   Si     0.230373     0.732226     0.548766
   si1_1   Si     0.207474     0.736231     0.573017
   si1_1   Si     0.237164     0.679912     0.563819
   si1_1   Si     0.274820     0.666887     0.601526
   si1_1   Si     0.164557     0.820617     0.285878
   si1_1   Si     0.163656     0.782398     0.353386
   si1_1   Si     0.140757     0.786404     0.377638
   si1_1   Si     0.201311     0.769374     0.391094
   si1_1   Si     0.178412     0.773379     0.415345
   si1_1   Si     0.155963     0.796494     0.405842
   si1_1   Si     0.133064     0.800499     0.430093
   si1_1   Si     0.162755     0.744180     0.420895
   si1_1   Si     0.139855     0.748185     0.445146
   si1_1   Si     0.200410     0.731155     0.458603
   si1_1   Si     0.177511     0.735161     0.482854
   si1_1   Si     0.155062     0.758275     0.473351
   si1_1   Si     0.132163     0.762281     0.497602
   si1_1   Si     0.192717     0.745250     0.511058
   si1_1   Si     0.169818     0.749256     0.535309
   si1_1   Si     0.161853     0.705961     0.488404
   si1_1   Si     0.138954     0.709967     0.512655
   si1_1   Si     0.199509     0.692937     0.526111
   si1_1   Si     0.176609     0.696942     0.550362
   si1_1   Si     0.154161     0.720057     0.540859
   si1_1   Si     0.160952     0.667743     0.555912
   si1_1   Si     0.125099     0.757205     0.383187
   si1_1   Si     0.102200     0.761210     0.407439
   si1_1   Si     0.117407     0.771300     0.435643
   si1_1   Si     0.094507     0.775305     0.459894
   si1_1   Si     0.124198     0.718986     0.450696
   si1_1   Si     0.101299     0.722992     0.474947
   si1_1   Si     0.078850     0.746106     0.465444
   si1_1   Si     0.116505     0.733082     0.503152
   si1_1   Si     0.093606     0.737087     0.527403
   si1_1   Si     0.085641     0.693793     0.480497
   si1_1   Si     0.123297     0.680768     0.518205
   si1_1   Si     0.147369     0.772370     0.525806
   si1_1   Si     0.109714     0.785395     0.488099
   si1_1   Si     0.086815     0.789401     0.512350
   si1_1   Si     0.071157     0.760202     0.517900
   si1_1   Si     0.398399     0.382004     0.509104
   si1_1   Si     0.395518     0.412478     0.463580
   si1_1   Si     0.427322     0.404526     0.456244
   si1_1   Si     0.427859     0.376629     0.437536
   si1_1   Si     0.430741     0.346155     0.483060
   si1_1   Si     0.463082     0.310306     0.457015
   si1_1   Si     0.422097     0.437578     0.346487
   si1_1   Si     0.424441     0.435001     0.410720
   si1_1   Si     0.424978     0.407104     0.392011
   si1_1   Si     0.306406     0.347488     0.557928
   si1_1   Si     0.341629     0.281165     0.577407
   si1_1   Si     0.390506     0.267948     0.598520
   si1_1   Si     0.376314     0.242738     0.615595
   si1_1   Si     0.376852     0.214842     0.596887
   si1_1   Si     0.379733     0.184367     0.642411
   si1_1   Si     0.411537     0.176415     0.635075
   si1_1   Si     0.412074     0.148518     0.616366
   si1_1   Si     0.300644     0.408437     0.466880
   si1_1   Si     0.303525     0.377963     0.512404
   si1_1   Si     0.348984     0.423117     0.506700
   si1_1   Si     0.349521     0.395220     0.487992
   si1_1   Si     0.352403     0.364746     0.533516
   si1_1   Si     0.335329     0.370011     0.505068
   si1_1   Si     0.335866     0.342114     0.486359
   si1_1   Si     0.338210     0.339536     0.550592
   si1_1   Si     0.338748     0.311639     0.531883
   si1_1   Si     0.384206     0.356794     0.526180
   si1_1   Si     0.384744     0.328897     0.507471
   si1_1   Si     0.387088     0.326320     0.571704
   si1_1   Si     0.387625     0.298423     0.552996
   si1_1   Si     0.370552     0.303687     0.524547
   si1_1   Si     0.371089     0.275790     0.505839
   si1_1   Si     0.373433     0.273213     0.570071
   si1_1   Si     0.373970     0.245316     0.551363
   si1_1   Si     0.419429     0.290471     0.545660
   si1_1   Si     0.419967     0.262574     0.526951
   si1_1   Si     0.422848     0.232099     0.572475
   si1_1   Si     0.405774     0.237364     0.544027
   si1_1   Si     0.406312     0.209467     0.525318
   si1_1   Si     0.408655     0.206890     0.589551
   si1_1   Si     0.409193     0.178993     0.570842
   si1_1   Si     0.455190     0.196250     0.546430
   si1_1   Si     0.458071     0.165776     0.591955
   si1_1   Si     0.440997     0.171041     0.563506
   si1_1   Si     0.441535     0.143144     0.544798
   si1_1   Si     0.443878     0.140566     0.609030
   si1_1   Si     0.444416     0.112669     0.590322
   si1_1   Si     0.490412     0.129927     0.565910
   si1_1   Si     0.346640     0.425695     0.442468
   si1_1   Si     0.329566     0.430960     0.414019
   si1_1   Si     0.330104     0.403063     0.395311
   si1_1   Si     0.332448     0.400485     0.459544
   si1_1   Si     0.332985     0.372588     0.440835
   si1_1   Si     0.378444     0.417743     0.435132
   si1_1   Si     0.378982     0.389846     0.416423
   si1_1   Si     0.381325     0.387268     0.480656
   si1_1   Si     0.381863     0.359371     0.461947
   si1_1   Si     0.364789     0.364636     0.433499
   si1_1   Si     0.365327     0.336739     0.414790
   si1_1   Si     0.367670     0.334162     0.479023
   si1_1   Si     0.368208     0.306265     0.460314
   si1_1   Si     0.413667     0.351419     0.454611
   si1_1   Si     0.414204     0.323523     0.435903
   si1_1   Si     0.416548     0.320945     0.500135
   si1_1   Si     0.417086     0.293048     0.481427
   si1_1   Si     0.400012     0.298313     0.452978
   si1_1   Si     0.400549     0.270416     0.434270
   si1_1   Si     0.402893     0.267838     0.498503
   si1_1   Si     0.403431     0.239941     0.479794
   si1_1   Si     0.448889     0.285096     0.474091
   si1_1   Si     0.449427     0.257199     0.455382
   si1_1   Si     0.451771     0.254622     0.519615
   si1_1   Si     0.452308     0.226725     0.500906
   si1_1   Si     0.435235     0.231990     0.472458
   si1_1   Si     0.435772     0.204093     0.453749
   si1_1   Si     0.438116     0.201515     0.517982
   si1_1   Si     0.438653     0.173618     0.499274
   si1_1   Si     0.484112     0.218773     0.493570
   si1_1   Si     0.484650     0.190876     0.474862
   si1_1   Si     0.487531     0.160401     0.520386
   si1_1   Si     0.470457     0.165666     0.491938
   si1_1   Si     0.470995     0.137769     0.473229
   si1_1   Si     0.473338     0.135192     0.537462
   si1_1   Si     0.473876     0.107295     0.518753
   si1_1   Si     0.505680     0.099343     0.511417
   si1_1   Si     0.506218     0.071446     0.492708
   si1_1   Si     0.327223     0.433537     0.349787
   si1_1   Si     0.376100     0.420320     0.370899
   si1_1   Si     0.359027     0.425585     0.342451
   si1_1   Si     0.359564     0.397688     0.323742
   si1_1   Si     0.361908     0.395111     0.387975
   si1_1   Si     0.362446     0.367214     0.369266
   si1_1   Si     0.407904     0.412368     0.363563
   si1_1   Si     0.408442     0.384471     0.344854
   si1_1   Si     0.410786     0.381894     0.409087
   si1_1   Si     0.411323     0.353997     0.390379
   si1_1   Si     0.394249     0.359262     0.361930
   si1_1   Si     0.394787     0.331365     0.343222
   si1_1   Si     0.397131     0.328787     0.407454
   si1_1   Si     0.397668     0.300890     0.388746
   si1_1   Si     0.443127     0.346045     0.383043
   si1_1   Si     0.443665     0.318148     0.364334
   si1_1   Si     0.446008     0.315571     0.428567
   si1_1   Si     0.446546     0.287674     0.409858
   si1_1   Si     0.429472     0.292938     0.381410
   si1_1   Si     0.430010     0.265041     0.362701
   si1_1   Si     0.432353     0.262464     0.426934
   si1_1   Si     0.432891     0.234567     0.408225
   si1_1   Si     0.481231     0.249247     0.448046
   si1_1   Si     0.481769     0.221350     0.429338
   si1_1   Si     0.464695     0.226615     0.400889
   si1_1   Si     0.465232     0.198718     0.382181
   si1_1   Si     0.467576     0.196141     0.446413
   si1_1   Si     0.468114     0.168244     0.427705
   si1_1   Si     0.502799     0.129817     0.465893
   si1_1   Si     0.503336     0.101920     0.447184
   si1_1   Si     0.356683     0.428163     0.278218
   si1_1   Si     0.402680     0.445420     0.253806
   si1_1   Si     0.405023     0.442843     0.318039
   si1_1   Si     0.405561     0.414946     0.299330
   si1_1   Si     0.388487     0.420211     0.270882
   si1_1   Si     0.389025     0.392314     0.252173
   si1_1   Si     0.391368     0.389736     0.316406
   si1_1   Si     0.391906     0.361839     0.297697
   si1_1   Si     0.440246     0.376519     0.337518
   si1_1   Si     0.440783     0.348623     0.318810
   si1_1   Si     0.423710     0.353887     0.290361
   si1_1   Si     0.424247     0.325990     0.271653
   si1_1   Si     0.426591     0.323413     0.335886
   si1_1   Si     0.427129     0.295516     0.317177
   si1_1   Si     0.461814     0.257089     0.355365
   si1_1   Si     0.462351     0.229193     0.336657
   si1_1   Si     0.383262     0.453263     0.161125
   si1_1   Si     0.385606     0.450685     0.225358
   si1_1   Si     0.386143     0.422788     0.206649
   si1_1   Si     0.418485     0.386939     0.180605
   si1_1   Si     0.420829     0.384362     0.244837
   si1_1   Si     0.421366     0.356465     0.226129
   si1_1   Si     0.211532     0.343447     0.561227
   si1_1   Si     0.257528     0.360705     0.536815
   si1_1   Si     0.243336     0.335495     0.553891
   si1_1   Si     0.243873     0.307598     0.535183
   si1_1   Si     0.246755     0.277124     0.580707
   si1_1   Si     0.292214     0.322279     0.575004
   si1_1   Si     0.292751     0.294382     0.556295
   si1_1   Si     0.295632     0.263907     0.601819
   si1_1   Si     0.278559     0.269172     0.573371
   si1_1   Si     0.279096     0.241275     0.554662
   si1_1   Si     0.327436     0.255955     0.594483
   si1_1   Si     0.327974     0.228058     0.575775
   si1_1   Si     0.330855     0.197584     0.621299
   si1_1   Si     0.313781     0.202849     0.592850
   si1_1   Si     0.314319     0.174952     0.574142
   si1_1   Si     0.362659     0.189632     0.613963
   si1_1   Si     0.363197     0.161735     0.595254
   si1_1   Si     0.366078     0.131260     0.640778
   si1_1   Si     0.349004     0.136525     0.612330
   si1_1   Si     0.349542     0.108628     0.593621
   si1_1   Si     0.397882     0.123308     0.633442
   si1_1   Si     0.398419     0.095412     0.614734
   si1_1   Si     0.254647     0.391179     0.491291
   si1_1   Si     0.238111     0.368547     0.444134
   si1_1   Si     0.240455     0.365970     0.508367
   si1_1   Si     0.240992     0.338073     0.489658
   si1_1   Si     0.286451     0.383227     0.483955
   si1_1   Si     0.286989     0.355330     0.465247
   si1_1   Si     0.289332     0.352753     0.529479
   si1_1   Si     0.289870     0.324856     0.510771
   si1_1   Si     0.272796     0.330121     0.482322
   si1_1   Si     0.273334     0.302224     0.463614
   si1_1   Si     0.275677     0.299646     0.527847
   si1_1   Si     0.276215     0.271749     0.509138
   si1_1   Si     0.321674     0.316904     0.503435
   si1_1   Si     0.322211     0.289007     0.484726
   si1_1   Si     0.324555     0.286430     0.548959
   si1_1   Si     0.325093     0.258533     0.530250
   si1_1   Si     0.308019     0.263797     0.501802
   si1_1   Si     0.308557     0.235900     0.483093
   si1_1   Si     0.310900     0.233323     0.547326
   si1_1   Si     0.311438     0.205426     0.528618
   si1_1   Si     0.356897     0.250581     0.522914
   si1_1   Si     0.357434     0.222684     0.504206
   si1_1   Si     0.359778     0.220106     0.568438
   si1_1   Si     0.360315     0.192209     0.549730
   si1_1   Si     0.343242     0.197474     0.521282
   si1_1   Si     0.343779     0.169577     0.502573
   si1_1   Si     0.346123     0.167000     0.566806
   si1_1   Si     0.346660     0.139103     0.548097
   si1_1   Si     0.392119     0.184257     0.542394
   si1_1   Si     0.392657     0.156360     0.523685
   si1_1   Si     0.395000     0.153783     0.587918
   si1_1   Si     0.395538     0.125886     0.569209
   si1_1   Si     0.378464     0.131151     0.540761
   si1_1   Si     0.379002     0.103254     0.522052
   si1_1   Si     0.381346     0.100676     0.586285
   si1_1   Si     0.381883     0.072779     0.567577
   si1_1   Si     0.427342     0.117934     0.561873
   si1_1   Si     0.427880     0.090037     0.543165
   si1_1   Si     0.413687     0.064827     0.560241
   si1_1   Si     0.281226     0.416279     0.374198
   si1_1   Si     0.283570     0.413702     0.438431
   si1_1   Si     0.284108     0.385805     0.419723
   si1_1   Si     0.267034     0.391070     0.391274
   si1_1   Si     0.267571     0.363173     0.372566
   si1_1   Si     0.269915     0.360595     0.436798
   si1_1   Si     0.270453     0.332698     0.418090
   si1_1   Si     0.315911     0.377853     0.412387
   si1_1   Si     0.316449     0.349956     0.393678
   si1_1   Si     0.318793     0.347378     0.457911
   si1_1   Si     0.319330     0.319482     0.439202
   si1_1   Si     0.302257     0.324746     0.410754
   si1_1   Si     0.302794     0.296849     0.392045
   si1_1   Si     0.305138     0.294272     0.456278
   si1_1   Si     0.305675     0.266375     0.437569
   si1_1   Si     0.351134     0.311530     0.431866
   si1_1   Si     0.351672     0.283633     0.413158
   si1_1   Si     0.354015     0.281055     0.477390
   si1_1   Si     0.354553     0.253158     0.458682
   si1_1   Si     0.337479     0.258423     0.430233
   si1_1   Si     0.338017     0.230526     0.411525
   si1_1   Si     0.340360     0.227948     0.475757
   si1_1   Si     0.340898     0.200052     0.457049
   si1_1   Si     0.386357     0.245206     0.451346
   si1_1   Si     0.386894     0.217309     0.432637
   si1_1   Si     0.389238     0.214732     0.496870
   si1_1   Si     0.389776     0.186835     0.478161
   si1_1   Si     0.372702     0.192100     0.449713
   si1_1   Si     0.373240     0.164203     0.431004
   si1_1   Si     0.375583     0.161625     0.495237
   si1_1   Si     0.376121     0.133728     0.476528
   si1_1   Si     0.421580     0.178883     0.470825
   si1_1   Si     0.422117     0.150986     0.452117
   si1_1   Si     0.424461     0.148408     0.516349
   si1_1   Si     0.424998     0.120511     0.497641
   si1_1   Si     0.407925     0.125776     0.469192
   si1_1   Si     0.408462     0.097879     0.450484
   si1_1   Si     0.410806     0.095302     0.514716
   si1_1   Si     0.411343     0.067405     0.496008
   si1_1   Si     0.456802     0.112560     0.490305
   si1_1   Si     0.457340     0.084663     0.471596
   si1_1   Si     0.459683     0.082085     0.535829
   si1_1   Si     0.460221     0.054188     0.517120
   si1_1   Si     0.443147     0.059453     0.488672
   si1_1   Si     0.443685     0.031556     0.469963
   si1_1   Si     0.492025     0.046236     0.509784
   si1_1   Si     0.264690     0.393647     0.327041
   si1_1   Si     0.310149     0.438802     0.321338
   si1_1   Si     0.310687     0.410905     0.302630
   si1_1   Si     0.313030     0.408327     0.366862
   si1_1   Si     0.313568     0.380430     0.348154
   si1_1   Si     0.296494     0.385695     0.319705
   si1_1   Si     0.297032     0.357798     0.300997
   si1_1   Si     0.299375     0.355221     0.365230
   si1_1   Si     0.299913     0.327324     0.346521
   si1_1   Si     0.345372     0.372478     0.340818
   si1_1   Si     0.345909     0.344581     0.322109
   si1_1   Si     0.348253     0.342004     0.386342
   si1_1   Si     0.348791     0.314107     0.367633
   si1_1   Si     0.331717     0.319372     0.339185
   si1_1   Si     0.332254     0.291475     0.320476
   si1_1   Si     0.334598     0.288897     0.384709
   si1_1   Si     0.335136     0.261000     0.366001
   si1_1   Si     0.380594     0.306155     0.360297
   si1_1   Si     0.381132     0.278258     0.341589
   si1_1   Si     0.383476     0.275681     0.405822
   si1_1   Si     0.384013     0.247784     0.387113
   si1_1   Si     0.366940     0.253048     0.358665
   si1_1   Si     0.367477     0.225152     0.339956
   si1_1   Si     0.369821     0.222574     0.404189
   si1_1   Si     0.370358     0.194677     0.385480
   si1_1   Si     0.415817     0.239832     0.379777
   si1_1   Si     0.416355     0.211935     0.361068
   si1_1   Si     0.418698     0.209357     0.425301
   si1_1   Si     0.419236     0.181460     0.406592
   si1_1   Si     0.402162     0.186725     0.378144
   si1_1   Si     0.402700     0.158828     0.359436
   si1_1   Si     0.405043     0.156251     0.423668
   si1_1   Si     0.405581     0.128354     0.404960
   si1_1   Si     0.451040     0.173508     0.399256
   si1_1   Si     0.451577     0.145611     0.380548
   si1_1   Si     0.453921     0.143034     0.444781
   si1_1   Si     0.454459     0.115137     0.426072
   si1_1   Si     0.437385     0.120402     0.397624
   si1_1   Si     0.437923     0.092505     0.378915
   si1_1   Si     0.440266     0.089927     0.443148
   si1_1   Si     0.440804     0.062030     0.424439
   si1_1   Si     0.486263     0.107185     0.418736
   si1_1   Si     0.486800     0.079288     0.400027
   si1_1   Si     0.489144     0.076711     0.464260
   si1_1   Si     0.489681     0.048814     0.445552
   si1_1   Si     0.472608     0.054078     0.417103
   si1_1   Si     0.473145     0.026181     0.398395
   si1_1   Si     0.307805     0.441379     0.257106
   si1_1   Si     0.291269     0.418747     0.209949
   si1_1   Si     0.293613     0.416170     0.274181
   si1_1   Si     0.294150     0.388273     0.255473
   si1_1   Si     0.339609     0.433427     0.249770
   si1_1   Si     0.340147     0.405530     0.231061
   si1_1   Si     0.342491     0.402953     0.295294
   si1_1   Si     0.343028     0.375056     0.276585
   si1_1   Si     0.325954     0.380321     0.248137
   si1_1   Si     0.326492     0.352424     0.229428
   si1_1   Si     0.328836     0.349846     0.293661
   si1_1   Si     0.329373     0.321949     0.274952
   si1_1   Si     0.374832     0.367104     0.269249
   si1_1   Si     0.375370     0.339207     0.250541
   si1_1   Si     0.377713     0.336630     0.314773
   si1_1   Si     0.378251     0.308733     0.296065
   si1_1   Si     0.361177     0.313997     0.267616
   si1_1   Si     0.361715     0.286100     0.248908
   si1_1   Si     0.364058     0.283523     0.313140
   si1_1   Si     0.364596     0.255626     0.294432
   si1_1   Si     0.410055     0.300781     0.288729
   si1_1   Si     0.410592     0.272884     0.270020
   si1_1   Si     0.412936     0.270306     0.334253
   si1_1   Si     0.413474     0.242409     0.315544
   si1_1   Si     0.396400     0.247674     0.287096
   si1_1   Si     0.396937     0.219777     0.268387
   si1_1   Si     0.399281     0.217200     0.332620
   si1_1   Si     0.399819     0.189303     0.313911
   si1_1   Si     0.445277     0.234457     0.308208
   si1_1   Si     0.445815     0.206560     0.289500
   si1_1   Si     0.448159     0.203983     0.353732
   si1_1   Si     0.448696     0.176086     0.335024
   si1_1   Si     0.431623     0.181351     0.306575
   si1_1   Si     0.432160     0.153454     0.287867
   si1_1   Si     0.434504     0.150876     0.352099
   si1_1   Si     0.435041     0.122979     0.333391
   si1_1   Si     0.480500     0.168134     0.327688
   si1_1   Si     0.481038     0.140237     0.308979
   si1_1   Si     0.483381     0.137659     0.373212
   si1_1   Si     0.483919     0.109763     0.354503
   si1_1   Si     0.466845     0.115027     0.326055
   si1_1   Si     0.467383     0.087130     0.307346
   si1_1   Si     0.469726     0.084553     0.371579
   si1_1   Si     0.470264     0.056656     0.352870
   si1_1   Si     0.502068     0.048704     0.345534
   si1_1   Si     0.502606     0.020807     0.326826
   si1_1   Si     0.504949     0.018229     0.391059
   si1_1   Si     0.337266     0.436005     0.185537
   si1_1   Si     0.320192     0.441270     0.157088
   si1_1   Si     0.320730     0.413373     0.138380
   si1_1   Si     0.323073     0.410795     0.202613
   si1_1   Si     0.323611     0.382898     0.183904
   si1_1   Si     0.369070     0.428053     0.178201
   si1_1   Si     0.369607     0.400156     0.159492
   si1_1   Si     0.371951     0.397578     0.223725
   si1_1   Si     0.372488     0.369681     0.205016
   si1_1   Si     0.355415     0.374946     0.176568
   si1_1   Si     0.355952     0.347049     0.157859
   si1_1   Si     0.358296     0.344472     0.222092
   si1_1   Si     0.358834     0.316575     0.203384
   si1_1   Si     0.404292     0.361729     0.197680
   si1_1   Si     0.404830     0.333833     0.178972
   si1_1   Si     0.407174     0.331255     0.243205
   si1_1   Si     0.407711     0.303358     0.224496
   si1_1   Si     0.390637     0.308623     0.196048
   si1_1   Si     0.391175     0.280726     0.177339
   si1_1   Si     0.393519     0.278148     0.241572
   si1_1   Si     0.394056     0.250251     0.222863
   si1_1   Si     0.439515     0.295406     0.217160
   si1_1   Si     0.440053     0.267509     0.198451
   si1_1   Si     0.442396     0.264932     0.262684
   si1_1   Si     0.442934     0.237035     0.243975
   si1_1   Si     0.425860     0.242299     0.215527
   si1_1   Si     0.426398     0.214403     0.196819
   si1_1   Si     0.428741     0.211825     0.261051
   si1_1   Si     0.429279     0.183928     0.242343
   si1_1   Si     0.461083     0.175976     0.235007
   si1_1   Si     0.461620     0.148079     0.216298
   si1_1   Si     0.463964     0.145502     0.280531
   si1_1   Si     0.464502     0.117605     0.261822
   si1_1   Si     0.352534     0.405421     0.131044
   si1_1   Si     0.353071     0.377524     0.112335
   si1_1   Si     0.401411     0.392204     0.152156
   si1_1   Si     0.401949     0.364307     0.133448
   si1_1   Si     0.384875     0.369572     0.104999
   si1_1   Si     0.385413     0.341675     0.086291
   si1_1   Si     0.387756     0.339097     0.150523
   si1_1   Si     0.388294     0.311200     0.131815
   si1_1   Si     0.420098     0.303248     0.124479
   si1_1   Si     0.420635     0.275351     0.105770
   si1_1   Si     0.422979     0.272774     0.170003
   si1_1   Si     0.423517     0.244877     0.151294
   si1_1   Si     0.417754     0.305826     0.060246
   si1_1   Si     0.194996     0.320815     0.514070
   si1_1   Si     0.180803     0.295605     0.531146
   si1_1   Si     0.181341     0.267708     0.512437
   si1_1   Si     0.229681     0.282389     0.552258
   si1_1   Si     0.230219     0.254492     0.533550
   si1_1   Si     0.216564     0.201385     0.531917
   si1_1   Si     0.264904     0.216065     0.571738
   si1_1   Si     0.265441     0.188168     0.553029
   si1_1   Si     0.300126     0.149742     0.591217
   si1_1   Si     0.300664     0.121845     0.572509
   si1_1   Si     0.335887     0.055522     0.591988
   si1_1   Si     0.178460     0.298183     0.466913
   si1_1   Si     0.223919     0.343337     0.461210
   si1_1   Si     0.224456     0.315441     0.442502
   si1_1   Si     0.226800     0.312863     0.506734
   si1_1   Si     0.227337     0.284966     0.488026
   si1_1   Si     0.210264     0.290231     0.459577
   si1_1   Si     0.210801     0.262334     0.440869
   si1_1   Si     0.213145     0.259756     0.505101
   si1_1   Si     0.213682     0.231859     0.486393
   si1_1   Si     0.259141     0.277014     0.480690
   si1_1   Si     0.259679     0.249117     0.461981
   si1_1   Si     0.262022     0.246540     0.526214
   si1_1   Si     0.262560     0.218643     0.507505
   si1_1   Si     0.245486     0.223907     0.479057
   si1_1   Si     0.246024     0.196011     0.460348
   si1_1   Si     0.248367     0.193433     0.524581
   si1_1   Si     0.248905     0.165536     0.505872
   si1_1   Si     0.294364     0.210691     0.500169
   si1_1   Si     0.294902     0.182794     0.481461
   si1_1   Si     0.297245     0.180216     0.545693
   si1_1   Si     0.297783     0.152319     0.526985
   si1_1   Si     0.280709     0.157584     0.498536
   si1_1   Si     0.281247     0.129687     0.479828
   si1_1   Si     0.283590     0.127110     0.544061
   si1_1   Si     0.284128     0.099213     0.525352
   si1_1   Si     0.329587     0.144367     0.519649
   si1_1   Si     0.330124     0.116470     0.500940
   si1_1   Si     0.332468     0.113893     0.565173
   si1_1   Si     0.333005     0.085996     0.546464
   si1_1   Si     0.315932     0.091261     0.518016
   si1_1   Si     0.316469     0.063364     0.499307
   si1_1   Si     0.318813     0.060786     0.563540
   si1_1   Si     0.364809     0.078044     0.539128
   si1_1   Si     0.365347     0.050147     0.520420
   si1_1   Si     0.367691     0.047570     0.584652
   si1_1   Si     0.221575     0.345915     0.396977
   si1_1   Si     0.205039     0.323283     0.349820
   si1_1   Si     0.207382     0.320705     0.414053
   si1_1   Si     0.207920     0.292808     0.395345
   si1_1   Si     0.253379     0.337963     0.389641
   si1_1   Si     0.253916     0.310066     0.370933
   si1_1   Si     0.256260     0.307489     0.435166
   si1_1   Si     0.256798     0.279592     0.416457
   si1_1   Si     0.239724     0.284856     0.388009
   si1_1   Si     0.240261     0.256959     0.369300
   si1_1   Si     0.242605     0.254382     0.433533
   si1_1   Si     0.243143     0.226485     0.414824
   si1_1   Si     0.288602     0.271640     0.409121
   si1_1   Si     0.289139     0.243743     0.390412
   si1_1   Si     0.291483     0.241165     0.454645
   si1_1   Si     0.292020     0.213268     0.435936
   si1_1   Si     0.274947     0.218533     0.407488
   si1_1   Si     0.275484     0.190636     0.388780
   si1_1   Si     0.277828     0.188059     0.453012
   si1_1   Si     0.278365     0.160162     0.434304
   si1_1   Si     0.323824     0.205316     0.428600
   si1_1   Si     0.324362     0.177419     0.409892
   si1_1   Si     0.326705     0.174842     0.474125
   si1_1   Si     0.327243     0.146945     0.455416
   si1_1   Si     0.310169     0.152210     0.426968
   si1_1   Si     0.310707     0.124313     0.408259
   si1_1   Si     0.313050     0.121735     0.472492
   si1_1   Si     0.313588     0.093838     0.453783
   si1_1   Si     0.359047     0.138993     0.448080
   si1_1   Si     0.359585     0.111096     0.429371
   si1_1   Si     0.361928     0.108519     0.493604
   si1_1   Si     0.362466     0.080622     0.474896
   si1_1   Si     0.345392     0.085886     0.446447
   si1_1   Si     0.345930     0.057989     0.427739
   si1_1   Si     0.348273     0.055412     0.491971
   si1_1   Si     0.348811     0.027515     0.473263
   si1_1   Si     0.394270     0.072670     0.467560
   si1_1   Si     0.394807     0.044773     0.448851
   si1_1   Si     0.397151     0.042195     0.513084
   si1_1   Si     0.248154     0.371015     0.279885
   si1_1   Si     0.250498     0.368437     0.344117
   si1_1   Si     0.251035     0.340540     0.325409
   si1_1   Si     0.233961     0.345805     0.296960
   si1_1   Si     0.234499     0.317908     0.278252
   si1_1   Si     0.236843     0.315331     0.342484
   si1_1   Si     0.237380     0.287434     0.323776
   si1_1   Si     0.282839     0.332589     0.318073
   si1_1   Si     0.283377     0.304692     0.299364
   si1_1   Si     0.285720     0.302114     0.363597
   si1_1   Si     0.286258     0.274217     0.344888
   si1_1   Si     0.269184     0.279482     0.316440
   si1_1   Si     0.269722     0.251585     0.297731
   si1_1   Si     0.272065     0.249007     0.361964
   si1_1   Si     0.272603     0.221110     0.343255
   si1_1   Si     0.318062     0.266265     0.337552
   si1_1   Si     0.318599     0.238368     0.318844
   si1_1   Si     0.320943     0.235791     0.383076
   si1_1   Si     0.321481     0.207894     0.364368
   si1_1   Si     0.304407     0.213159     0.335919
   si1_1   Si     0.304944     0.185262     0.317211
   si1_1   Si     0.307288     0.182684     0.381444
   si1_1   Si     0.307826     0.154787     0.362735
   si1_1   Si     0.353285     0.199942     0.357032
   si1_1   Si     0.353822     0.172045     0.338323
   si1_1   Si     0.356166     0.169467     0.402556
   si1_1   Si     0.356703     0.141570     0.383847
   si1_1   Si     0.339630     0.146835     0.355399
   si1_1   Si     0.340167     0.118938     0.336690
   si1_1   Si     0.342511     0.116361     0.400923
   si1_1   Si     0.343048     0.088464     0.382214
   si1_1   Si     0.388507     0.133618     0.376511
   si1_1   Si     0.389045     0.105722     0.357803
   si1_1   Si     0.391388     0.103144     0.422035
   si1_1   Si     0.391926     0.075247     0.403327
   si1_1   Si     0.374852     0.080512     0.374878
   si1_1   Si     0.375390     0.052615     0.356170
   si1_1   Si     0.377734     0.050037     0.420403
   si1_1   Si     0.378271     0.022140     0.401694
   si1_1   Si     0.423730     0.067295     0.395991
   si1_1   Si     0.424268     0.039398     0.377282
   si1_1   Si     0.426611     0.036821     0.441515
   si1_1   Si     0.410075     0.014188     0.394358
   si1_1   Si     0.231618     0.348383     0.232728
   si1_1   Si     0.277077     0.393537     0.227024
   si1_1   Si     0.277614     0.365640     0.208316
   si1_1   Si     0.279958     0.363063     0.272549
   si1_1   Si     0.280496     0.335166     0.253840
   si1_1   Si     0.263422     0.340431     0.225392
   si1_1   Si     0.263959     0.312534     0.206683
   si1_1   Si     0.266303     0.309956     0.270916
   si1_1   Si     0.266841     0.282059     0.252207
   si1_1   Si     0.312299     0.327214     0.246504
   si1_1   Si     0.312837     0.299317     0.227795
   si1_1   Si     0.315181     0.296740     0.292028
   si1_1   Si     0.315718     0.268843     0.273319
   si1_1   Si     0.298644     0.274107     0.244871
   si1_1   Si     0.299182     0.246210     0.226163
   si1_1   Si     0.301526     0.243633     0.290395
   si1_1   Si     0.302063     0.215736     0.271687
   si1_1   Si     0.347522     0.260891     0.265983
   si1_1   Si     0.348060     0.232994     0.247275
   si1_1   Si     0.350403     0.230416     0.311508
   si1_1   Si     0.350941     0.202519     0.292799
   si1_1   Si     0.333867     0.207784     0.264351
   si1_1   Si     0.334405     0.179887     0.245642
   si1_1   Si     0.336748     0.177310     0.309875
   si1_1   Si     0.337286     0.149413     0.291166
   si1_1   Si     0.382745     0.194567     0.285463
   si1_1   Si     0.383282     0.166670     0.266754
   si1_1   Si     0.385626     0.164093     0.330987
   si1_1   Si     0.386164     0.136196     0.312279
   si1_1   Si     0.369090     0.141461     0.283830
   si1_1   Si     0.369628     0.113564     0.265122
   si1_1   Si     0.371971     0.110986     0.329354
   si1_1   Si     0.372509     0.083089     0.310646
   si1_1   Si     0.417968     0.128244     0.304943
   si1_1   Si     0.418505     0.100347     0.286234
   si1_1   Si     0.420849     0.097770     0.350467
   si1_1   Si     0.421386     0.069873     0.331758
   si1_1   Si     0.404313     0.075137     0.303310
   si1_1   Si     0.404850     0.047240     0.284601
   si1_1   Si     0.407194     0.044663     0.348834
   si1_1   Si     0.407731     0.016766     0.330125
   si1_1   Si     0.453190     0.061921     0.324422
   si1_1   Si     0.453728     0.034024     0.305713
   si1_1   Si     0.456071     0.031446     0.369946
   si1_1   Si     0.456609     0.003549     0.351238
   si1_1   Si     0.439535     0.008814     0.322789
   si1_1   Si     0.274733     0.396115     0.162792
   si1_1   Si     0.258197     0.373483     0.115635
   si1_1   Si     0.260541     0.370905     0.179867
   si1_1   Si     0.261078     0.343008     0.161159
   si1_1   Si     0.306537     0.388163     0.155456
   si1_1   Si     0.307075     0.360266     0.136747
   si1_1   Si     0.309418     0.357688     0.200980
   si1_1   Si     0.309956     0.329792     0.182271
   si1_1   Si     0.292882     0.335056     0.153823
   si1_1   Si     0.293420     0.307159     0.135114
   si1_1   Si     0.295763     0.304582     0.199347
   si1_1   Si     0.296301     0.276685     0.180638
   si1_1   Si     0.341760     0.321840     0.174935
   si1_1   Si     0.342297     0.293943     0.156227
   si1_1   Si     0.344641     0.291365     0.220459
   si1_1   Si     0.345179     0.263468     0.201751
   si1_1   Si     0.328105     0.268733     0.173302
   si1_1   Si     0.328642     0.240836     0.154594
   si1_1   Si     0.330986     0.238258     0.218827
   si1_1   Si     0.331524     0.210362     0.200118
   si1_1   Si     0.376982     0.255516     0.194415
   si1_1   Si     0.377520     0.227619     0.175706
   si1_1   Si     0.379864     0.225042     0.239939
   si1_1   Si     0.380401     0.197145     0.221230
   si1_1   Si     0.363328     0.202410     0.192782
   si1_1   Si     0.363865     0.174513     0.174073
   si1_1   Si     0.366209     0.171935     0.238306
   si1_1   Si     0.366746     0.144038     0.219597
   si1_1   Si     0.412205     0.189193     0.213894
   si1_1   Si     0.412743     0.161296     0.195186
   si1_1   Si     0.415086     0.158718     0.259418
   si1_1   Si     0.415624     0.130821     0.240710
   si1_1   Si     0.398550     0.136086     0.212261
   si1_1   Si     0.399088     0.108189     0.193553
   si1_1   Si     0.401431     0.105612     0.257786
   si1_1   Si     0.401969     0.077715     0.239077
   si1_1   Si     0.447428     0.122870     0.233374
   si1_1   Si     0.447965     0.094973     0.214665
   si1_1   Si     0.450309     0.092395     0.278898
   si1_1   Si     0.450847     0.064498     0.260189
   si1_1   Si     0.433773     0.069763     0.231741
   si1_1   Si     0.434311     0.041866     0.213032
   si1_1   Si     0.436654     0.039288     0.277265
   si1_1   Si     0.437192     0.011391     0.258557
   si1_1   Si     0.482651     0.056546     0.252853
   si1_1   Si     0.483188     0.028649     0.234145
   si1_1   Si     0.485532     0.026072     0.298377
   si1_1   Si     0.468996     0.003440     0.251221
   si1_1   Si     0.290001     0.365531     0.108299
   si1_1   Si     0.290538     0.337634     0.089590
   si1_1   Si     0.338879     0.352314     0.129411
   si1_1   Si     0.339416     0.324417     0.110702
   si1_1   Si     0.322342     0.329682     0.082254
   si1_1   Si     0.322880     0.301785     0.063546
   si1_1   Si     0.325224     0.299207     0.127778
   si1_1   Si     0.325761     0.271310     0.109070
   si1_1   Si     0.371220     0.316465     0.103366
   si1_1   Si     0.371758     0.288568     0.084658
   si1_1   Si     0.374101     0.285991     0.148891
   si1_1   Si     0.374639     0.258094     0.130182
   si1_1   Si     0.357565     0.263358     0.101734
   si1_1   Si     0.358103     0.235461     0.083025
   si1_1   Si     0.360446     0.232884     0.147258
   si1_1   Si     0.360984     0.204987     0.128549
   si1_1   Si     0.406443     0.250142     0.122846
   si1_1   Si     0.406980     0.222245     0.104137
   si1_1   Si     0.409324     0.219667     0.168370
   si1_1   Si     0.409862     0.191770     0.149662
   si1_1   Si     0.392788     0.197035     0.121213
   si1_1   Si     0.393325     0.169138     0.102505
   si1_1   Si     0.395669     0.166561     0.166737
   si1_1   Si     0.396207     0.138664     0.148029
   si1_1   Si     0.441665     0.183818     0.142326
   si1_1   Si     0.442203     0.155921     0.123617
   si1_1   Si     0.444547     0.153344     0.187850
   si1_1   Si     0.445084     0.125447     0.169141
   si1_1   Si     0.428011     0.130712     0.140693
   si1_1   Si     0.428548     0.102815     0.121984
   si1_1   Si     0.430892     0.100237     0.186217
   si1_1   Si     0.431429     0.072340     0.167508
   si1_1   Si     0.479769     0.087021     0.207329
   si1_1   Si     0.480307     0.059124     0.188621
   si1_1   Si     0.463233     0.064388     0.160172
   si1_1   Si     0.463771     0.036491     0.141464
   si1_1   Si     0.466114     0.033914     0.205696
   si1_1   Si     0.466652     0.006017     0.186988
   si1_1   Si     0.354684     0.293833     0.056210
   si1_1   Si     0.355222     0.265936     0.037501
   si1_1   Si     0.403562     0.280616     0.077322
   si1_1   Si     0.404099     0.252719     0.058613
   si1_1   Si     0.387025     0.257984     0.030165
   si1_1   Si     0.387563     0.230087     0.011456
   si1_1   Si     0.389907     0.227510     0.075689
   si1_1   Si     0.390444     0.199613     0.056980
   si1_1   Si     0.438784     0.214293     0.096801
   si1_1   Si     0.439322     0.186396     0.078093
   si1_1   Si     0.422248     0.191661     0.049644
   si1_1   Si     0.422786     0.163764     0.030936
   si1_1   Si     0.425129     0.161186     0.095169
   si1_1   Si     0.425667     0.133289     0.076460
   si1_1   Si     0.460352     0.094863     0.114648
   si1_1   Si     0.460890     0.066966     0.095940
   si1_1   Si     0.419367     0.222135     0.004120
   si1_1   Si     0.161923     0.275551     0.419756
   si1_1   Si     0.164267     0.272973     0.483989
   si1_1   Si     0.164805     0.245076     0.465281
   si1_1   Si     0.147731     0.250341     0.436832
   si1_1   Si     0.148269     0.222444     0.418124
   si1_1   Si     0.150612     0.219866     0.482356
   si1_1   Si     0.151150     0.191970     0.463648
   si1_1   Si     0.196609     0.237124     0.457944
   si1_1   Si     0.197146     0.209227     0.439236
   si1_1   Si     0.199490     0.206650     0.503469
   si1_1   Si     0.200027     0.178753     0.484760
   si1_1   Si     0.182954     0.184018     0.456312
   si1_1   Si     0.183491     0.156121     0.437603
   si1_1   Si     0.186372     0.125646     0.483127
   si1_1   Si     0.231831     0.170801     0.477424
   si1_1   Si     0.232369     0.142904     0.458715
   si1_1   Si     0.234713     0.140326     0.522948
   si1_1   Si     0.235250     0.112429     0.504240
   si1_1   Si     0.218176     0.117694     0.475791
   si1_1   Si     0.218714     0.089797     0.457083
   si1_1   Si     0.221595     0.059323     0.502607
   si1_1   Si     0.267054     0.104478     0.496904
   si1_1   Si     0.267592     0.076581     0.478195
   si1_1   Si     0.269935     0.074003     0.542428
   si1_1   Si     0.270473     0.046106     0.523719
   si1_1   Si     0.253399     0.051371     0.495271
   si1_1   Si     0.302277     0.038154     0.516383
   si1_1   Si     0.145387     0.252918     0.372599
   si1_1   Si     0.190846     0.298073     0.366896
   si1_1   Si     0.191384     0.270176     0.348188
   si1_1   Si     0.193727     0.267599     0.412420
   si1_1   Si     0.194265     0.239702     0.393712
   si1_1   Si     0.177191     0.244966     0.365263
   si1_1   Si     0.177729     0.217069     0.346555
   si1_1   Si     0.180072     0.214492     0.410788
   si1_1   Si     0.180610     0.186595     0.392079
   si1_1   Si     0.226069     0.231750     0.386376
   si1_1   Si     0.226607     0.203853     0.367667
   si1_1   Si     0.228950     0.201275     0.431900
   si1_1   Si     0.229488     0.173378     0.413191
   si1_1   Si     0.212414     0.178643     0.384743
   si1_1   Si     0.212952     0.150746     0.366034
   si1_1   Si     0.215295     0.148169     0.430267
   si1_1   Si     0.215833     0.120272     0.411558
   si1_1   Si     0.261292     0.165426     0.405855
   si1_1   Si     0.261829     0.137529     0.387147
   si1_1   Si     0.264173     0.134952     0.451379
   si1_1   Si     0.264710     0.107055     0.432671
   si1_1   Si     0.247637     0.112320     0.404222
   si1_1   Si     0.248174     0.084423     0.385514
   si1_1   Si     0.250518     0.081845     0.449747
   si1_1   Si     0.251055     0.053948     0.431038
   si1_1   Si     0.296514     0.099103     0.425335
   si1_1   Si     0.297052     0.071206     0.406626
   si1_1   Si     0.299396     0.068629     0.470859
   si1_1   Si     0.299933     0.040732     0.452150
   si1_1   Si     0.282859     0.045996     0.423702
   si1_1   Si     0.283397     0.018099     0.404993
   si1_1   Si     0.331737     0.032780     0.444814
   si1_1   Si     0.188503     0.300651     0.302664
   si1_1   Si     0.171966     0.278018     0.255507
   si1_1   Si     0.174310     0.275441     0.319739
   si1_1   Si     0.174848     0.247544     0.301031
   si1_1   Si     0.220307     0.292699     0.295328
   si1_1   Si     0.220844     0.264802     0.276619
   si1_1   Si     0.223188     0.262224     0.340852
   si1_1   Si     0.223725     0.234327     0.322143
   si1_1   Si     0.206652     0.239592     0.293695
   si1_1   Si     0.207189     0.211695     0.274986
   si1_1   Si     0.209533     0.209118     0.339219
   si1_1   Si     0.210070     0.181221     0.320510
   si1_1   Si     0.255529     0.226375     0.314807
   si1_1   Si     0.256067     0.198478     0.296098
   si1_1   Si     0.258410     0.195901     0.360331
   si1_1   Si     0.258948     0.168004     0.341623
   si1_1   Si     0.241874     0.173269     0.313174
   si1_1   Si     0.242412     0.145372     0.294466
   si1_1   Si     0.244755     0.142794     0.358698
   si1_1   Si     0.245293     0.114897     0.339990
   si1_1   Si     0.290752     0.160052     0.334287
   si1_1   Si     0.291290     0.132155     0.315578
   si1_1   Si     0.293633     0.129577     0.379811
   si1_1   Si     0.294171     0.101681     0.361102
   si1_1   Si     0.277097     0.106945     0.332654
   si1_1   Si     0.277635     0.079048     0.313945
   si1_1   Si     0.279978     0.076471     0.378178
   si1_1   Si     0.280516     0.048574     0.359469
   si1_1   Si     0.325975     0.093729     0.353766
   si1_1   Si     0.326512     0.065832     0.335058
   si1_1   Si     0.328856     0.063254     0.399290
   si1_1   Si     0.329393     0.035357     0.380582
   si1_1   Si     0.312320     0.040622     0.352133
   si1_1   Si     0.312857     0.012725     0.333425
   si1_1   Si     0.315201     0.010147     0.397657
   si1_1   Si     0.361197     0.027405     0.373246
   si1_1   Si     0.215082     0.325751     0.185571
   si1_1   Si     0.217425     0.323173     0.249803
   si1_1   Si     0.217963     0.295276     0.231095
   si1_1   Si     0.200889     0.300541     0.202646
   si1_1   Si     0.201427     0.272644     0.183938
   si1_1   Si     0.203770     0.270066     0.248171
   si1_1   Si     0.204308     0.242169     0.229462
   si1_1   Si     0.249767     0.287324     0.223759
   si1_1   Si     0.250304     0.259427     0.205050
   si1_1   Si     0.252648     0.256850     0.269283
   si1_1   Si     0.253186     0.228953     0.250574
   si1_1   Si     0.236112     0.234217     0.222126
   si1_1   Si     0.236649     0.206321     0.203417
   si1_1   Si     0.238993     0.203743     0.267650
   si1_1   Si     0.239531     0.175846     0.248942
   si1_1   Si     0.284990     0.221001     0.243238
   si1_1   Si     0.285527     0.193104     0.224530
   si1_1   Si     0.287871     0.190526     0.288762
   si1_1   Si     0.288408     0.162629     0.270054
   si1_1   Si     0.271335     0.167894     0.241605
   si1_1   Si     0.271872     0.139997     0.222897
   si1_1   Si     0.274216     0.137420     0.287130
   si1_1   Si     0.274753     0.109523     0.268421
   si1_1   Si     0.320212     0.154677     0.262718
   si1_1   Si     0.320750     0.126780     0.244009
   si1_1   Si     0.323093     0.124203     0.308242
   si1_1   Si     0.323631     0.096306     0.289533
   si1_1   Si     0.306557     0.101571     0.261085
   si1_1   Si     0.307095     0.073674     0.242376
   si1_1   Si     0.309438     0.071096     0.306609
   si1_1   Si     0.309976     0.043199     0.287901
   si1_1   Si     0.355435     0.088354     0.282197
   si1_1   Si     0.355973     0.060457     0.263489
   si1_1   Si     0.358316     0.057880     0.327722
   si1_1   Si     0.358854     0.029983     0.309013
   si1_1   Si     0.341780     0.035247     0.280565
   si1_1   Si     0.342318     0.007350     0.261856
   si1_1   Si     0.344661     0.004773     0.326089
   si1_1   Si     0.390658     0.022031     0.301677
   si1_1   Si     0.198546     0.303118     0.138414
   si1_1   Si     0.244004     0.348273     0.132711
   si1_1   Si     0.244542     0.320376     0.114002
   si1_1   Si     0.246886     0.317799     0.178235
   si1_1   Si     0.247423     0.289902     0.159526
   si1_1   Si     0.230349     0.295166     0.131078
   si1_1   Si     0.230887     0.267269     0.112369
   si1_1   Si     0.233231     0.264692     0.176602
   si1_1   Si     0.233768     0.236795     0.157893
   si1_1   Si     0.279227     0.281950     0.152190
   si1_1   Si     0.279765     0.254053     0.133481
   si1_1   Si     0.282108     0.251475     0.197714
   si1_1   Si     0.282646     0.223578     0.179006
   si1_1   Si     0.265572     0.228843     0.150557
   si1_1   Si     0.266110     0.200946     0.131849
   si1_1   Si     0.268453     0.198369     0.196081
   si1_1   Si     0.268991     0.170472     0.177373
   si1_1   Si     0.314450     0.215626     0.171670
   si1_1   Si     0.314987     0.187729     0.152961
   si1_1   Si     0.317331     0.185152     0.217194
   si1_1   Si     0.317869     0.157255     0.198485
   si1_1   Si     0.300795     0.162520     0.170037
   si1_1   Si     0.301332     0.134623     0.151328
   si1_1   Si     0.303676     0.132045     0.215561
   si1_1   Si     0.304214     0.104148     0.196852
   si1_1   Si     0.349673     0.149303     0.191149
   si1_1   Si     0.350210     0.121406     0.172441
   si1_1   Si     0.352554     0.118828     0.236673
   si1_1   Si     0.353091     0.090932     0.217965
   si1_1   Si     0.336018     0.096196     0.189516
   si1_1   Si     0.336555     0.068299     0.170808
   si1_1   Si     0.338899     0.065722     0.235040
   si1_1   Si     0.339436     0.037825     0.216332
   si1_1   Si     0.384895     0.082980     0.210629
   si1_1   Si     0.385433     0.055083     0.191920
   si1_1   Si     0.387776     0.052505     0.256153
   si1_1   Si     0.388314     0.024608     0.237444
   si1_1   Si     0.371240     0.029873     0.208996
   si1_1   Si     0.371778     0.001976     0.190287
   si1_1   Si     0.420118     0.016656     0.230108
   si1_1   Si     0.227468     0.325641     0.085554
   si1_1   Si     0.228006     0.297744     0.066845
   si1_1   Si     0.276346     0.312424     0.106666
   si1_1   Si     0.276884     0.284527     0.087957
   si1_1   Si     0.259810     0.289792     0.059509
   si1_1   Si     0.260347     0.261895     0.040800
   si1_1   Si     0.262691     0.259317     0.105033
   si1_1   Si     0.263229     0.231420     0.086325
   si1_1   Si     0.308687     0.276575     0.080621
   si1_1   Si     0.309225     0.248678     0.061913
   si1_1   Si     0.311569     0.246101     0.126145
   si1_1   Si     0.312106     0.218204     0.107437
   si1_1   Si     0.295032     0.223468     0.078988
   si1_1   Si     0.295570     0.195572     0.060280
   si1_1   Si     0.297914     0.192994     0.124513
   si1_1   Si     0.298451     0.165097     0.105804
   si1_1   Si     0.343910     0.210252     0.100101
   si1_1   Si     0.344448     0.182355     0.081392
   si1_1   Si     0.346791     0.179777     0.145625
   si1_1   Si     0.347329     0.151880     0.126916
   si1_1   Si     0.330255     0.157145     0.098468
   si1_1   Si     0.330793     0.129248     0.079759
   si1_1   Si     0.333136     0.126671     0.143992
   si1_1   Si     0.333674     0.098774     0.125284
   si1_1   Si     0.379133     0.143928     0.119580
   si1_1   Si     0.379670     0.116031     0.100872
   si1_1   Si     0.382014     0.113454     0.165105
   si1_1   Si     0.382552     0.085557     0.146396
   si1_1   Si     0.365478     0.090822     0.117948
   si1_1   Si     0.366015     0.062925     0.099239
   si1_1   Si     0.368359     0.060347     0.163472
   si1_1   Si     0.368897     0.032450     0.144763
   si1_1   Si     0.414356     0.077605     0.139060
   si1_1   Si     0.414893     0.049708     0.120351
   si1_1   Si     0.417237     0.047131     0.184584
   si1_1   Si     0.417774     0.019234     0.165875
   si1_1   Si     0.400701     0.024498     0.137427
   si1_1   Si     0.449578     0.011282     0.158539
   si1_1   Si     0.292151     0.253943     0.033464
   si1_1   Si     0.292689     0.226046     0.014756
   si1_1   Si     0.341029     0.240726     0.054577
   si1_1   Si     0.341567     0.212829     0.035868
   si1_1   Si     0.324493     0.218094     0.007420
   si1_1   Si     0.327374     0.187620     0.052944
   si1_1   Si     0.327912     0.159723     0.034235
   si1_1   Si     0.373370     0.204877     0.028532
   si1_1   Si     0.373908     0.176980     0.009824
   si1_1   Si     0.376252     0.174403     0.074056
   si1_1   Si     0.376789     0.146506     0.055348
   si1_1   Si     0.359716     0.151771     0.026899
   si1_1   Si     0.360253     0.123874     0.008191
   si1_1   Si     0.362597     0.121296     0.072423
   si1_1   Si     0.363134     0.093399     0.053715
   si1_1   Si     0.408593     0.138554     0.048012
   si1_1   Si     0.409131     0.110657     0.029303
   si1_1   Si     0.411474     0.108080     0.093536
   si1_1   Si     0.412012     0.080183     0.074827
   si1_1   Si     0.394938     0.085447     0.046379
   si1_1   Si     0.395476     0.057550     0.027670
   si1_1   Si     0.397819     0.054973     0.091903
   si1_1   Si     0.398357     0.027076     0.073194
   si1_1   Si     0.443816     0.072231     0.067491
   si1_1   Si     0.444353     0.044334     0.048783
   si1_1   Si     0.446697     0.041756     0.113015
   si1_1   Si     0.447235     0.013859     0.094307
   si1_1   Si     0.430161     0.019124     0.065858
   si1_1   Si     0.479039     0.005907     0.086971
   si1_1   Si     0.405712     0.169028     0.002488
   si1_1   Si     0.392057     0.115922     0.000855
   si1_1   Si     0.440935     0.102705     0.021967
   si1_1   Si     0.441472     0.074808     0.003258
   si1_1   Si     0.427280     0.049598     0.020334
   si1_1   Si     0.427817     0.021701     0.001626
   si1_1   Si     0.102272     0.205186     0.442535
   si1_1   Si     0.085736     0.182554     0.395378
   si1_1   Si     0.134076     0.197234     0.435199
   si1_1   Si     0.134614     0.169337     0.416491
   si1_1   Si     0.120421     0.144128     0.433567
   si1_1   Si     0.120959     0.116231     0.414858
   si1_1   Si     0.169299     0.130911     0.454679
   si1_1   Si     0.169836     0.103014     0.435970
   si1_1   Si     0.156181     0.049907     0.434337
   si1_1   Si     0.204521     0.064588     0.474158
   si1_1   Si     0.205059     0.036691     0.455450
   si1_1   Si     0.128851     0.230286     0.325442
   si1_1   Si     0.131195     0.227709     0.389675
   si1_1   Si     0.131732     0.199812     0.370967
   si1_1   Si     0.114659     0.205077     0.342518
   si1_1   Si     0.115196     0.177180     0.323810
   si1_1   Si     0.117540     0.174602     0.388042
   si1_1   Si     0.118077     0.146705     0.369334
   si1_1   Si     0.163536     0.191860     0.363631
   si1_1   Si     0.164074     0.163963     0.344922
   si1_1   Si     0.166417     0.161385     0.409155
   si1_1   Si     0.166955     0.133488     0.390446
   si1_1   Si     0.149881     0.138753     0.361998
   si1_1   Si     0.150419     0.110856     0.343289
   si1_1   Si     0.152763     0.108279     0.407522
   si1_1   Si     0.153300     0.080382     0.388813
   si1_1   Si     0.198759     0.125536     0.383110
   si1_1   Si     0.199297     0.097640     0.364402
   si1_1   Si     0.201640     0.095062     0.428634
   si1_1   Si     0.202178     0.067165     0.409926
   si1_1   Si     0.185104     0.072430     0.381477
   si1_1   Si     0.185642     0.044533     0.362769
   si1_1   Si     0.187985     0.041955     0.427001
   si1_1   Si     0.188523     0.014058     0.408293
   si1_1   Si     0.233982     0.059213     0.402590
   si1_1   Si     0.234519     0.031316     0.383881
   si1_1   Si     0.236863     0.028739     0.448114
   si1_1   Si     0.112315     0.207654     0.278286
   si1_1   Si     0.157774     0.252809     0.272582
   si1_1   Si     0.158311     0.224912     0.253874
   si1_1   Si     0.160655     0.222334     0.318106
   si1_1   Si     0.161193     0.194437     0.299398
   si1_1   Si     0.144119     0.199702     0.270950
   si1_1   Si     0.144657     0.171805     0.252241
   si1_1   Si     0.147000     0.169228     0.316474
   si1_1   Si     0.147538     0.141331     0.297765
   si1_1   Si     0.192997     0.186485     0.292062
   si1_1   Si     0.193534     0.158588     0.273353
   si1_1   Si     0.195878     0.156011     0.337586
   si1_1   Si     0.196415     0.128114     0.318877
   si1_1   Si     0.179342     0.133379     0.290429
   si1_1   Si     0.179879     0.105482     0.271720
   si1_1   Si     0.182223     0.102904     0.335953
   si1_1   Si     0.182760     0.075007     0.317245
   si1_1   Si     0.228219     0.120162     0.311541
   si1_1   Si     0.228757     0.092265     0.292833
   si1_1   Si     0.231101     0.089688     0.357066
   si1_1   Si     0.231638     0.061791     0.338357
   si1_1   Si     0.214564     0.067055     0.309909
   si1_1   Si     0.215102     0.039158     0.291200
   si1_1   Si     0.217446     0.036581     0.355433
   si1_1   Si     0.217983     0.008684     0.336724
   si1_1   Si     0.263442     0.053839     0.331021
   si1_1   Si     0.263980     0.025942     0.312312
   si1_1   Si     0.266323     0.023364     0.376545
   si1_1   Si     0.249787     0.000732     0.329388
   si1_1   Si     0.155430     0.255386     0.208350
   si1_1   Si     0.138894     0.232754     0.161193
   si1_1   Si     0.141238     0.230176     0.225425
   si1_1   Si     0.141775     0.202280     0.206717
   si1_1   Si     0.187234     0.247434     0.201014
   si1_1   Si     0.187772     0.219537     0.182305
   si1_1   Si     0.190115     0.216960     0.246538
   si1_1   Si     0.190653     0.189063     0.227829
   si1_1   Si     0.173579     0.194328     0.199381
   si1_1   Si     0.174117     0.166431     0.180672
   si1_1   Si     0.176460     0.163853     0.244905
   si1_1   Si     0.176998     0.135956     0.226196
   si1_1   Si     0.222457     0.181111     0.220493
   si1_1   Si     0.222995     0.153214     0.201785
   si1_1   Si     0.225338     0.150636     0.266017
   si1_1   Si     0.225876     0.122739     0.247309
   si1_1   Si     0.208802     0.128004     0.218860
   si1_1   Si     0.209340     0.100107     0.200152
   si1_1   Si     0.211683     0.097530     0.264384
   si1_1   Si     0.212221     0.069633     0.245676
   si1_1   Si     0.257680     0.114787     0.239973
   si1_1   Si     0.258217     0.086891     0.221264
   si1_1   Si     0.260561     0.084313     0.285497
   si1_1   Si     0.261098     0.056416     0.266788
   si1_1   Si     0.244025     0.061681     0.238340
   si1_1   Si     0.244562     0.033784     0.219631
   si1_1   Si     0.246906     0.031206     0.283864
   si1_1   Si     0.247443     0.003309     0.265155
   si1_1   Si     0.292902     0.048464     0.259452
   si1_1   Si     0.293440     0.020567     0.240744
   si1_1   Si     0.295784     0.017990     0.304976
   si1_1   Si     0.182009     0.280486     0.091257
   si1_1   Si     0.184353     0.277909     0.155489
   si1_1   Si     0.184891     0.250012     0.136781
   si1_1   Si     0.167817     0.255276     0.108333
   si1_1   Si     0.168354     0.227379     0.089624
   si1_1   Si     0.170698     0.224802     0.153857
   si1_1   Si     0.171236     0.196905     0.135148
   si1_1   Si     0.216695     0.242060     0.129445
   si1_1   Si     0.217232     0.214163     0.110736
   si1_1   Si     0.219576     0.211585     0.174969
   si1_1   Si     0.220113     0.183688     0.156260
   si1_1   Si     0.203040     0.188953     0.127812
   si1_1   Si     0.203577     0.161056     0.109103
   si1_1   Si     0.205921     0.158479     0.173336
   si1_1   Si     0.206458     0.130582     0.154628
   si1_1   Si     0.251917     0.175736     0.148924
   si1_1   Si     0.252455     0.147839     0.130216
   si1_1   Si     0.254798     0.145262     0.194449
   si1_1   Si     0.255336     0.117365     0.175740
   si1_1   Si     0.238262     0.122630     0.147292
   si1_1   Si     0.238800     0.094733     0.128583
   si1_1   Si     0.241143     0.092155     0.192816
   si1_1   Si     0.241681     0.064258     0.174107
   si1_1   Si     0.287140     0.109413     0.168404
   si1_1   Si     0.287678     0.081516     0.149695
   si1_1   Si     0.290021     0.078939     0.213928
   si1_1   Si     0.290559     0.051042     0.195219
   si1_1   Si     0.273485     0.056306     0.166771
   si1_1   Si     0.274023     0.028409     0.148063
   si1_1   Si     0.276366     0.025832     0.212295
   si1_1   Si     0.322363     0.043090     0.187883
   si1_1   Si     0.322900     0.015193     0.169175
   si1_1   Si     0.325244     0.012615     0.233408
   si1_1   Si     0.165473     0.257854     0.044100
   si1_1   Si     0.213813     0.272534     0.083921
   si1_1   Si     0.214351     0.244637     0.065212
   si1_1   Si     0.197277     0.249902     0.036764
   si1_1   Si     0.197815     0.222005     0.018055
   si1_1   Si     0.200158     0.219427     0.082288
   si1_1   Si     0.200696     0.191531     0.063579
   si1_1   Si     0.246155     0.236685     0.057876
   si1_1   Si     0.246692     0.208788     0.039168
   si1_1   Si     0.249036     0.206211     0.103400
   si1_1   Si     0.249574     0.178314     0.084692
   si1_1   Si     0.232500     0.183579     0.056243
   si1_1   Si     0.233037     0.155682     0.037535
   si1_1   Si     0.235381     0.153104     0.101767
   si1_1   Si     0.235919     0.125207     0.083059
   si1_1   Si     0.281378     0.170362     0.077356
   si1_1   Si     0.281915     0.142465     0.058647
   si1_1   Si     0.284259     0.139887     0.122880
   si1_1   Si     0.284796     0.111990     0.104171
   si1_1   Si     0.267723     0.117255     0.075723
   si1_1   Si     0.268260     0.089358     0.057014
   si1_1   Si     0.270604     0.086781     0.121247
   si1_1   Si     0.271141     0.058884     0.102538
   si1_1   Si     0.316600     0.104039     0.096835
   si1_1   Si     0.317138     0.076142     0.078127
   si1_1   Si     0.319481     0.073564     0.142359
   si1_1   Si     0.320019     0.045667     0.123651
   si1_1   Si     0.302945     0.050932     0.095202
   si1_1   Si     0.303483     0.023035     0.076494
   si1_1   Si     0.305826     0.020457     0.140727
   si1_1   Si     0.351823     0.037715     0.116315
   si1_1   Si     0.352361     0.009818     0.097606
   si1_1   Si     0.354704     0.007241     0.161839
   si1_1   Si     0.229619     0.214053     0.010719
   si1_1   Si     0.278496     0.200836     0.031832
   si1_1   Si     0.279034     0.172939     0.013123
   si1_1   Si     0.264841     0.147730     0.030199
   si1_1   Si     0.265379     0.119833     0.011490
   si1_1   Si     0.310838     0.164987     0.005787
   si1_1   Si     0.313719     0.134513     0.051311
   si1_1   Si     0.314257     0.106616     0.032602
   si1_1   Si     0.297183     0.111881     0.004154
   si1_1   Si     0.300064     0.081406     0.049678
   si1_1   Si     0.300602     0.053509     0.030970
   si1_1   Si     0.346061     0.098664     0.025266
   si1_1   Si     0.346598     0.070767     0.006558
   si1_1   Si     0.348942     0.068190     0.070791
   si1_1   Si     0.349479     0.040293     0.052082
   si1_1   Si     0.332406     0.045557     0.023634
   si1_1   Si     0.332943     0.017660     0.004925
   si1_1   Si     0.335287     0.015083     0.069158
   si1_1   Si     0.381283     0.032341     0.044746
   si1_1   Si     0.381821     0.004444     0.026037
   si1_1   Si     0.384164     0.001866     0.090270
   si1_1   Si     0.072081     0.129447     0.393746
   si1_1   Si     0.069200     0.159922     0.348221
   si1_1   Si     0.052664     0.137290     0.301065
   si1_1   Si     0.055007     0.134712     0.365297
   si1_1   Si     0.055545     0.106815     0.346589
   si1_1   Si     0.101004     0.151970     0.340885
   si1_1   Si     0.101541     0.124073     0.322177
   si1_1   Si     0.103885     0.121495     0.386410
   si1_1   Si     0.104422     0.093598     0.367701
   si1_1   Si     0.087349     0.098863     0.339253
   si1_1   Si     0.087886     0.070966     0.320544
   si1_1   Si     0.090230     0.068389     0.384777
   si1_1   Si     0.090768     0.040492     0.366068
   si1_1   Si     0.136226     0.085647     0.360365
   si1_1   Si     0.136764     0.057750     0.341656
   si1_1   Si     0.139108     0.055172     0.405889
   si1_1   Si     0.139645     0.027275     0.387181
   si1_1   Si     0.122571     0.032540     0.358732
   si1_1   Si     0.123109     0.004643     0.340024
   si1_1   Si     0.171449     0.019323     0.379845
   si1_1   Si     0.095779     0.185022     0.231129
   si1_1   Si     0.098122     0.182444     0.295361
   si1_1   Si     0.098660     0.154547     0.276653
   si1_1   Si     0.081586     0.159812     0.248204
   si1_1   Si     0.082124     0.131915     0.229496
   si1_1   Si     0.084468     0.129338     0.293728
   si1_1   Si     0.085005     0.101441     0.275020
   si1_1   Si     0.130464     0.146595     0.269317
   si1_1   Si     0.131002     0.118698     0.250608
   si1_1   Si     0.133345     0.116121     0.314841
   si1_1   Si     0.133883     0.088224     0.296132
   si1_1   Si     0.116809     0.093489     0.267684
   si1_1   Si     0.117347     0.065592     0.248975
   si1_1   Si     0.119690     0.063014     0.313208
   si1_1   Si     0.120228     0.035117     0.294499
   si1_1   Si     0.165687     0.080272     0.288796
   si1_1   Si     0.166224     0.052375     0.270088
   si1_1   Si     0.168568     0.049798     0.334320
   si1_1   Si     0.169105     0.021901     0.315612
   si1_1   Si     0.152032     0.027165     0.287163
   si1_1   Si     0.200909     0.013949     0.308276
   si1_1   Si     0.079243     0.162390     0.183972
   si1_1   Si     0.124702     0.207544     0.178268
   si1_1   Si     0.125239     0.179647     0.159560
   si1_1   Si     0.127583     0.177070     0.223793
   si1_1   Si     0.128120     0.149173     0.205084
   si1_1   Si     0.111047     0.154438     0.176636
   si1_1   Si     0.111584     0.126541     0.157927
   si1_1   Si     0.113928     0.123963     0.222160
   si1_1   Si     0.114465     0.096066     0.203451
   si1_1   Si     0.159924     0.141221     0.197748
   si1_1   Si     0.160462     0.113324     0.179039
   si1_1   Si     0.162805     0.110746     0.243272
   si1_1   Si     0.163343     0.082850     0.224564
   si1_1   Si     0.146269     0.088114     0.196115
   si1_1   Si     0.146807     0.060217     0.177407
   si1_1   Si     0.149151     0.057640     0.241639
   si1_1   Si     0.149688     0.029743     0.222931
   si1_1   Si     0.195147     0.074898     0.217228
   si1_1   Si     0.195685     0.047001     0.198519
   si1_1   Si     0.198028     0.044423     0.262752
   si1_1   Si     0.198566     0.016526     0.244043
   si1_1   Si     0.181492     0.021791     0.215595
   si1_1   Si     0.230370     0.008574     0.236707
   si1_1   Si     0.122358     0.210122     0.114036
   si1_1   Si     0.108165     0.184912     0.131111
   si1_1   Si     0.108703     0.157015     0.112403
   si1_1   Si     0.154162     0.202170     0.106700
   si1_1   Si     0.154699     0.174273     0.087991
   si1_1   Si     0.157043     0.171695     0.152224
   si1_1   Si     0.157581     0.143798     0.133515
   si1_1   Si     0.140507     0.149063     0.105067
   si1_1   Si     0.141045     0.121166     0.086358
   si1_1   Si     0.143388     0.118589     0.150591
   si1_1   Si     0.143926     0.090692     0.131882
   si1_1   Si     0.189385     0.135846     0.126179
   si1_1   Si     0.189922     0.107949     0.107471
   si1_1   Si     0.192266     0.105372     0.171703
   si1_1   Si     0.192803     0.077475     0.152995
   si1_1   Si     0.175730     0.082740     0.124546
   si1_1   Si     0.176267     0.054843     0.105838
   si1_1   Si     0.178611     0.052265     0.170071
   si1_1   Si     0.179148     0.024368     0.151362
   si1_1   Si     0.224607     0.069523     0.145659
   si1_1   Si     0.225145     0.041626     0.126950
   si1_1   Si     0.227489     0.039049     0.191183
   si1_1   Si     0.228026     0.011152     0.172474
   si1_1   Si     0.210952     0.016416     0.144026
   si1_1   Si     0.259830     0.003200     0.165138
   si1_1   Si     0.151281     0.232644     0.061176
   si1_1   Si     0.137626     0.179538     0.059543
   si1_1   Si     0.183622     0.196795     0.035131
   si1_1   Si     0.186503     0.166321     0.080655
   si1_1   Si     0.187041     0.138424     0.061947
   si1_1   Si     0.169967     0.143689     0.033498
   si1_1   Si     0.172848     0.113214     0.079022
   si1_1   Si     0.173386     0.085317     0.060314
   si1_1   Si     0.218845     0.130472     0.054611
   si1_1   Si     0.219383     0.102575     0.035902
   si1_1   Si     0.221726     0.099998     0.100135
   si1_1   Si     0.222264     0.072101     0.081426
   si1_1   Si     0.205190     0.077365     0.052978
   si1_1   Si     0.205728     0.049468     0.034269
   si1_1   Si     0.208071     0.046891     0.098502
   si1_1   Si     0.208609     0.018994     0.079793
   si1_1   Si     0.254068     0.064149     0.074090
   si1_1   Si     0.254605     0.036252     0.055381
   si1_1   Si     0.256949     0.033674     0.119614
   si1_1   Si     0.257486     0.005777     0.100906
   si1_1   Si     0.240413     0.011042     0.072457
   si1_1   Si     0.215964     0.160946     0.009086
   si1_1   Si     0.202309     0.107840     0.007454
   si1_1   Si     0.251186     0.094623     0.028566
   si1_1   Si     0.251724     0.066726     0.009857
   si1_1   Si     0.237531     0.041516     0.026933
   si1_1   Si     0.238069     0.013619     0.008225
   si1_1   Si     0.283528     0.058774     0.002521
   si1_1   Si     0.286409     0.028300     0.048045
   si1_1   Si     0.286947     0.000403     0.029337
   si1_1   Si     0.269873     0.005667     0.000889
   si1_1   Si     0.038471     0.112080     0.318140
   si1_1   Si     0.039009     0.084183     0.299432
   si1_1   Si     0.041890     0.053709     0.344956
   si1_1   Si     0.024816     0.058973     0.316507
   si1_1   Si     0.073694     0.045757     0.337620
   si1_1   Si     0.036127     0.114657     0.253908
   si1_1   Si     0.019591     0.092025     0.206751
   si1_1   Si     0.021935     0.089448     0.270983
   si1_1   Si     0.067931     0.106705     0.246572
   si1_1   Si     0.068469     0.078809     0.227863
   si1_1   Si     0.070813     0.076231     0.292096
   si1_1   Si     0.071350     0.048334     0.273387
   si1_1   Si     0.054276     0.053599     0.244939
   si1_1   Si     0.103154     0.040382     0.266051
   si1_1   Si     0.103692     0.012485     0.247342
   si1_1   Si     0.106035     0.009908     0.311575
   si1_1   Si     0.062707     0.139757     0.136815
   si1_1   Si     0.065050     0.137180     0.201047
   si1_1   Si     0.065588     0.109283     0.182339
   si1_1   Si     0.048514     0.114548     0.153890
   si1_1   Si     0.051395     0.084073     0.199415
   si1_1   Si     0.051933     0.056176     0.180706
   si1_1   Si     0.097392     0.101331     0.175003
   si1_1   Si     0.097929     0.073434     0.156294
   si1_1   Si     0.100273     0.070857     0.220527
   si1_1   Si     0.100810     0.042960     0.201818
   si1_1   Si     0.083737     0.048224     0.173370
   si1_1   Si     0.132614     0.035008     0.194482
   si1_1   Si     0.133152     0.007111     0.175774
   si1_1   Si     0.135496     0.004533     0.240006
   si1_1   Si     0.094510     0.131805     0.129479
   si1_1   Si     0.095048     0.103908     0.110770
   si1_1   Si     0.080855     0.078699     0.127846
   si1_1   Si     0.126852     0.095956     0.103434
   si1_1   Si     0.127390     0.068060     0.084725
   si1_1   Si     0.129733     0.065482     0.148958
   si1_1   Si     0.130271     0.037585     0.130250
   si1_1   Si     0.113197     0.042850     0.101801
   si1_1   Si     0.116078     0.012375     0.147325
   si1_1   Si     0.162075     0.029633     0.122914
   si1_1   Si     0.162612     0.001736     0.104205
   si1_1   Si     0.159193     0.060108     0.077389
   si1_1   Si     0.159731     0.032211     0.058681
   si1_1   Si     0.145539     0.007001     0.075757
   si1_1   Si     0.191535     0.024259     0.051345
   si1_1   Si     0.068449     0.225691     0.439692
   si1_1   Si     0.032611     0.182590     0.386057
   si1_1   Si     0.016389     0.211548     0.429734
   si1_1   Si     0.235755     0.402963     0.522102
   si1_1   Si     0.167472     0.417778     0.555821
   si1_1   Si     0.099190     0.432594     0.589539
   si1_1   Si     0.199917     0.359861     0.468467
   si1_1   Si     0.211847     0.380196     0.528318
   si1_1   Si     0.183695     0.388820     0.512144
   si1_1   Si     0.170021     0.335878     0.507715
   si1_1   Si     0.181951     0.356212     0.567566
   si1_1   Si     0.153798     0.364836     0.551392
   si1_1   Si     0.159787     0.366053     0.518359
   si1_1   Si     0.131635     0.374677     0.502185
   si1_1   Si     0.143565     0.395011     0.562036
   si1_1   Si     0.115412     0.403635     0.545862
   si1_1   Si     0.129891     0.342069     0.557608
   si1_1   Si     0.101739     0.350693     0.541434
   si1_1   Si     0.085516     0.379652     0.585111
   si1_1   Si     0.091505     0.380868     0.552077
   si1_1   Si     0.063352     0.389492     0.535903
   si1_1   Si     0.075283     0.409827     0.595755
   si1_1   Si     0.047130     0.418451     0.579580
   si1_1   Si     0.033456     0.365509     0.575152
   si1_1   Si     0.023223     0.395684     0.585796
   si1_1   Si     0.164079     0.316760     0.414831
   si1_1   Si     0.176009     0.337094     0.474682
   si1_1   Si     0.147857     0.345718     0.458508
   si1_1   Si     0.134183     0.292776     0.454080
   si1_1   Si     0.146113     0.313111     0.513931
   si1_1   Si     0.117961     0.321735     0.497757
   si1_1   Si     0.123949     0.322951     0.464723
   si1_1   Si     0.095797     0.331575     0.448549
   si1_1   Si     0.107727     0.351910     0.508400
   si1_1   Si     0.079575     0.360534     0.492226
   si1_1   Si     0.094053     0.298968     0.503972
   si1_1   Si     0.065901     0.307592     0.487798
   si1_1   Si     0.049679     0.336550     0.531475
   si1_1   Si     0.055667     0.337767     0.498442
   si1_1   Si     0.027515     0.346391     0.482268
   si1_1   Si     0.039445     0.366725     0.542119
   si1_1   Si     0.011292     0.375349     0.525945
   si1_1   Si     0.128241     0.273658     0.361195
   si1_1   Si     0.140171     0.293993     0.421046
   si1_1   Si     0.112019     0.302617     0.404872
   si1_1   Si     0.098345     0.249675     0.400444
   si1_1   Si     0.110275     0.270009     0.460295
   si1_1   Si     0.082123     0.278633     0.444121
   si1_1   Si     0.088111     0.279850     0.411088
   si1_1   Si     0.059959     0.288474     0.394914
   si1_1   Si     0.071889     0.308808     0.454765
   si1_1   Si     0.043737     0.317432     0.438591
   si1_1   Si     0.058215     0.255866     0.450336
   si1_1   Si     0.030063     0.264490     0.434162
   si1_1   Si     0.041993     0.284825     0.494013
   si1_1   Si     0.013841     0.293449     0.477839
   si1_1   Si     0.019829     0.294665     0.444806
   si1_1   Si     0.003607     0.323624     0.488483
   si1_1   Si     0.092403     0.230557     0.307559
   si1_1   Si     0.104334     0.250891     0.367411
   si1_1   Si     0.076181     0.259515     0.351236
   si1_1   Si     0.062507     0.206573     0.346808
   si1_1   Si     0.074438     0.226908     0.406659
   si1_1   Si     0.046285     0.235532     0.390485
   si1_1   Si     0.052274     0.236748     0.357452
   si1_1   Si     0.024121     0.245372     0.341278
   si1_1   Si     0.036052     0.265707     0.401129
   si1_1   Si     0.007899     0.274331     0.384955
   si1_1   Si     0.022378     0.212765     0.396701
   si1_1   Si     0.006155     0.241723     0.440378
   si1_1   Si     0.056566     0.187455     0.253924
   si1_1   Si     0.068496     0.207790     0.313775
   si1_1   Si     0.040343     0.216414     0.297601
   si1_1   Si     0.026669     0.163472     0.293172
   si1_1   Si     0.038600     0.183806     0.353023
   si1_1   Si     0.010447     0.192430     0.336849
   si1_1   Si     0.016436     0.193647     0.303816
   si1_1   Si     0.000214     0.222605     0.347493
   si1_1   Si     0.020728     0.144354     0.200288
   si1_1   Si     0.032658     0.164688     0.260139
   si1_1   Si     0.004506     0.173312     0.243965
   si1_1   Si     0.002762     0.140705     0.299388
   si1_1   Si     0.225521     0.433138     0.532746
   si1_1   Si     0.197368     0.441762     0.516572
   si1_1   Si     0.158982     0.480561     0.511042
   si1_1   Si     0.157239     0.447953     0.566465
   si1_1   Si     0.129086     0.456577     0.550290
   si1_1   Si     0.090700     0.495376     0.544760
   si1_1   Si     0.259709     0.407828     0.389969
   si1_1   Si     0.243487     0.436787     0.433646
   si1_1   Si     0.229813     0.383845     0.429218
   si1_1   Si     0.241743     0.404179     0.489069
   si1_1   Si     0.213591     0.412803     0.472895
   si1_1   Si     0.219579     0.414020     0.439862
   si1_1   Si     0.191427     0.422644     0.423688
   si1_1   Si     0.203357     0.442978     0.483539
   si1_1   Si     0.175205     0.451602     0.467365
   si1_1   Si     0.189683     0.390036     0.479110
   si1_1   Si     0.161531     0.398660     0.462936
   si1_1   Si     0.173461     0.418995     0.522787
   si1_1   Si     0.145308     0.427619     0.506613
   si1_1   Si     0.151297     0.428835     0.473580
   si1_1   Si     0.123145     0.437459     0.457406
   si1_1   Si     0.135075     0.457794     0.517257
   si1_1   Si     0.106922     0.466418     0.501083
   si1_1   Si     0.121401     0.404852     0.512829
   si1_1   Si     0.093249     0.413476     0.496655
   si1_1   Si     0.105179     0.433810     0.556506
   si1_1   Si     0.077026     0.442434     0.540332
   si1_1   Si     0.083015     0.443651     0.507298
   si1_1   Si     0.054862     0.452275     0.491124
   si1_1   Si     0.066793     0.472609     0.550976
   si1_1   Si     0.053119     0.419667     0.546547
   si1_1   Si     0.024966     0.428291     0.530373
   si1_1   Si     0.223871     0.364727     0.336334
   si1_1   Si     0.235801     0.385061     0.396185
   si1_1   Si     0.207649     0.393685     0.380011
   si1_1   Si     0.193975     0.340743     0.375582
   si1_1   Si     0.205905     0.361078     0.435433
   si1_1   Si     0.177753     0.369702     0.419259
   si1_1   Si     0.183741     0.370918     0.386226
   si1_1   Si     0.155589     0.379542     0.370052
   si1_1   Si     0.167519     0.399877     0.429903
   si1_1   Si     0.139367     0.408501     0.413729
   si1_1   Si     0.153845     0.346935     0.425475
   si1_1   Si     0.125693     0.355559     0.409301
   si1_1   Si     0.137623     0.375893     0.469152
   si1_1   Si     0.109471     0.384517     0.452978
   si1_1   Si     0.115459     0.385734     0.419944
   si1_1   Si     0.087307     0.394358     0.403770
   si1_1   Si     0.099237     0.414692     0.463621
   si1_1   Si     0.071085     0.423316     0.447447
   si1_1   Si     0.085563     0.361750     0.459193
   si1_1   Si     0.057411     0.370374     0.443019
   si1_1   Si     0.069341     0.390709     0.502870
   si1_1   Si     0.041189     0.399333     0.486696
   si1_1   Si     0.047177     0.400549     0.453663
   si1_1   Si     0.019025     0.409173     0.437489
   si1_1   Si     0.030955     0.429508     0.497340
   si1_1   Si     0.002802     0.438132     0.481166
   si1_1   Si     0.017281     0.376566     0.492911
   si1_1   Si     0.001059     0.405524     0.536588
   si1_1   Si     0.188033     0.321625     0.282698
   si1_1   Si     0.199964     0.341960     0.342549
   si1_1   Si     0.171811     0.350584     0.326375
   si1_1   Si     0.158137     0.297642     0.321946
   si1_1   Si     0.170068     0.317976     0.381798
   si1_1   Si     0.141915     0.326600     0.365624
   si1_1   Si     0.147904     0.327817     0.332590
   si1_1   Si     0.119751     0.336441     0.316416
   si1_1   Si     0.131681     0.356775     0.376267
   si1_1   Si     0.103529     0.365399     0.360093
   si1_1   Si     0.118008     0.303833     0.371839
   si1_1   Si     0.089855     0.312457     0.355665
   si1_1   Si     0.101785     0.332792     0.415516
   si1_1   Si     0.073633     0.341416     0.399342
   si1_1   Si     0.079621     0.342632     0.366309
   si1_1   Si     0.051469     0.351256     0.350135
   si1_1   Si     0.063399     0.371591     0.409986
   si1_1   Si     0.035247     0.380215     0.393812
   si1_1   Si     0.049725     0.318649     0.405557
   si1_1   Si     0.021573     0.327273     0.389383
   si1_1   Si     0.033503     0.347607     0.449234
   si1_1   Si     0.005351     0.356231     0.433060
   si1_1   Si     0.011339     0.357448     0.400027
   si1_1   Si     0.152195     0.278524     0.229062
   si1_1   Si     0.164126     0.298858     0.288913
   si1_1   Si     0.135973     0.307482     0.272739
   si1_1   Si     0.122299     0.254540     0.268311
   si1_1   Si     0.134230     0.274875     0.328162
   si1_1   Si     0.106077     0.283499     0.311988
   si1_1   Si     0.112066     0.284715     0.278955
   si1_1   Si     0.083913     0.293339     0.262780
   si1_1   Si     0.095844     0.313674     0.322632
   si1_1   Si     0.067691     0.322298     0.306457
   si1_1   Si     0.082170     0.260732     0.318203
   si1_1   Si     0.054017     0.269356     0.302029
   si1_1   Si     0.065948     0.289690     0.361880
   si1_1   Si     0.037795     0.298314     0.345706
   si1_1   Si     0.043784     0.299531     0.312673
   si1_1   Si     0.015631     0.308155     0.296499
   si1_1   Si     0.027562     0.328489     0.356350
   si1_1   Si     0.013888     0.275547     0.351922
   si1_1   Si     0.116358     0.235422     0.175426
   si1_1   Si     0.128288     0.255757     0.235277
   si1_1   Si     0.100136     0.264381     0.219103
   si1_1   Si     0.086462     0.211439     0.214675
   si1_1   Si     0.098392     0.231773     0.274526
   si1_1   Si     0.070239     0.240397     0.258352
   si1_1   Si     0.076228     0.241614     0.225319
   si1_1   Si     0.048076     0.250238     0.209145
   si1_1   Si     0.060006     0.270572     0.268996
   si1_1   Si     0.031853     0.279196     0.252822
   si1_1   Si     0.046332     0.217630     0.264567
   si1_1   Si     0.018179     0.226254     0.248393
   si1_1   Si     0.030110     0.246589     0.308244
   si1_1   Si     0.001957     0.255213     0.292070
   si1_1   Si     0.007946     0.256429     0.259037
   si1_1   Si     0.080520     0.192321     0.121791
   si1_1   Si     0.092450     0.212655     0.181642
   si1_1   Si     0.064298     0.221279     0.165468
   si1_1   Si     0.050624     0.168337     0.161039
   si1_1   Si     0.062554     0.188672     0.220890
   si1_1   Si     0.034402     0.197296     0.204716
   si1_1   Si     0.040390     0.198512     0.171683
   si1_1   Si     0.012238     0.207136     0.155509
   si1_1   Si     0.024168     0.227471     0.215360
   si1_1   Si     0.010494     0.174529     0.210932
   si1_1   Si     0.026716     0.145570     0.167255
   si1_1   Si     0.120596     0.519360     0.505511
   si1_1   Si     0.249475     0.438003     0.400613
   si1_1   Si     0.221323     0.446627     0.384439
   si1_1   Si     0.205101     0.475586     0.428116
   si1_1   Si     0.211089     0.476802     0.395083
   si1_1   Si     0.182937     0.485426     0.378909
   si1_1   Si     0.181193     0.452819     0.434331
   si1_1   Si     0.153041     0.461443     0.418157
   si1_1   Si     0.164971     0.481777     0.478009
   si1_1   Si     0.136818     0.490401     0.461834
   si1_1   Si     0.142807     0.491618     0.428801
   si1_1   Si     0.114655     0.500242     0.412627
   si1_1   Si     0.126585     0.520576     0.472478
   si1_1   Si     0.098432     0.529200     0.456304
   si1_1   Si     0.112911     0.467634     0.468050
   si1_1   Si     0.084759     0.476258     0.451876
   si1_1   Si     0.096689     0.496593     0.511727
   si1_1   Si     0.068536     0.505217     0.495553
   si1_1   Si     0.074525     0.506433     0.462519
   si1_1   Si     0.046372     0.515057     0.446345
   si1_1   Si     0.044629     0.482450     0.501768
   si1_1   Si     0.016476     0.491074     0.485594
   si1_1   Si     0.267441     0.441652     0.301513
   si1_1   Si     0.265697     0.409045     0.356936
   si1_1   Si     0.237545     0.417669     0.340762
   si1_1   Si     0.243534     0.418885     0.307729
   si1_1   Si     0.215381     0.427509     0.291555
   si1_1   Si     0.227311     0.447844     0.351406
   si1_1   Si     0.199159     0.456468     0.335232
   si1_1   Si     0.213637     0.394902     0.346977
   si1_1   Si     0.185485     0.403526     0.330803
   si1_1   Si     0.197415     0.423860     0.390654
   si1_1   Si     0.169263     0.432484     0.374480
   si1_1   Si     0.175251     0.433701     0.341447
   si1_1   Si     0.147099     0.442325     0.325273
   si1_1   Si     0.159029     0.462659     0.385124
   si1_1   Si     0.130877     0.471283     0.368950
   si1_1   Si     0.145355     0.409717     0.380696
   si1_1   Si     0.117203     0.418341     0.364522
   si1_1   Si     0.129133     0.438676     0.424373
   si1_1   Si     0.100981     0.447300     0.408199
   si1_1   Si     0.106969     0.448516     0.375165
   si1_1   Si     0.078817     0.457140     0.358991
   si1_1   Si     0.090747     0.477475     0.418842
   si1_1   Si     0.062595     0.486099     0.402668
   si1_1   Si     0.077073     0.424533     0.414414
   si1_1   Si     0.048921     0.433157     0.398240
   si1_1   Si     0.060851     0.453491     0.458091
   si1_1   Si     0.032699     0.462115     0.441917
   si1_1   Si     0.038687     0.463332     0.408884
   si1_1   Si     0.010535     0.471956     0.392710
   si1_1   Si     0.022465     0.492290     0.452561
   si1_1   Si     0.008791     0.439348     0.448132
   si1_1   Si     0.231603     0.398551     0.247878
   si1_1   Si     0.229860     0.365943     0.303300
   si1_1   Si     0.201707     0.374567     0.287126
   si1_1   Si     0.207696     0.375784     0.254093
   si1_1   Si     0.179543     0.384408     0.237919
   si1_1   Si     0.191474     0.404742     0.297770
   si1_1   Si     0.163321     0.413366     0.281596
   si1_1   Si     0.177800     0.351800     0.293342
   si1_1   Si     0.149647     0.360424     0.277168
   si1_1   Si     0.161578     0.380759     0.337019
   si1_1   Si     0.133425     0.389383     0.320845
   si1_1   Si     0.139414     0.390599     0.287811
   si1_1   Si     0.111261     0.399223     0.271637
   si1_1   Si     0.123191     0.419558     0.331488
   si1_1   Si     0.095039     0.428182     0.315314
   si1_1   Si     0.109518     0.366616     0.327060
   si1_1   Si     0.081365     0.375240     0.310886
   si1_1   Si     0.093295     0.395574     0.370737
   si1_1   Si     0.065143     0.404198     0.354563
   si1_1   Si     0.071131     0.405415     0.321530
   si1_1   Si     0.042979     0.414039     0.305356
   si1_1   Si     0.054909     0.434373     0.365207
   si1_1   Si     0.026757     0.442997     0.349033
   si1_1   Si     0.041235     0.381431     0.360778
   si1_1   Si     0.013083     0.390055     0.344604
   si1_1   Si     0.025013     0.410390     0.404455
   si1_1   Si     0.002849     0.420230     0.355248
   si1_1   Si     0.195765     0.355449     0.194242
   si1_1   Si     0.194022     0.322842     0.249665
   si1_1   Si     0.165869     0.331466     0.233490
   si1_1   Si     0.171858     0.332682     0.200457
   si1_1   Si     0.143705     0.341306     0.184283
   si1_1   Si     0.155636     0.361641     0.244134
   si1_1   Si     0.127483     0.370265     0.227960
   si1_1   Si     0.141962     0.308699     0.239706
   si1_1   Si     0.113809     0.317323     0.223532
   si1_1   Si     0.125740     0.337657     0.283383
   si1_1   Si     0.097587     0.346281     0.267209
   si1_1   Si     0.103576     0.347498     0.234176
   si1_1   Si     0.075423     0.356122     0.218001
   si1_1   Si     0.087354     0.376456     0.277853
   si1_1   Si     0.059201     0.385080     0.261678
   si1_1   Si     0.073680     0.323514     0.273424
   si1_1   Si     0.045527     0.332138     0.257250
   si1_1   Si     0.057458     0.352473     0.317101
   si1_1   Si     0.029305     0.361097     0.300927
   si1_1   Si     0.035294     0.362313     0.267894
   si1_1   Si     0.007141     0.370937     0.251720
   si1_1   Si     0.019072     0.391272     0.311571
   si1_1   Si     0.005398     0.338330     0.307143
   si1_1   Si     0.159928     0.312348     0.140606
   si1_1   Si     0.146254     0.259406     0.136178
   si1_1   Si     0.158184     0.279740     0.196029
   si1_1   Si     0.130032     0.288364     0.179855
   si1_1   Si     0.136020     0.289581     0.146821
   si1_1   Si     0.107868     0.298205     0.130647
   si1_1   Si     0.119798     0.318539     0.190498
   si1_1   Si     0.091645     0.327163     0.174324
   si1_1   Si     0.106124     0.265597     0.186070
   si1_1   Si     0.077972     0.274221     0.169896
   si1_1   Si     0.089902     0.294556     0.229747
   si1_1   Si     0.061749     0.303180     0.213573
   si1_1   Si     0.067738     0.304396     0.180540
   si1_1   Si     0.039586     0.313020     0.164366
   si1_1   Si     0.051516     0.333355     0.224217
   si1_1   Si     0.023363     0.341979     0.208043
   si1_1   Si     0.037842     0.280413     0.219788
   si1_1   Si     0.009689     0.289037     0.203614
   si1_1   Si     0.021620     0.309371     0.263466
   si1_1   Si     0.124090     0.269246     0.086970
   si1_1   Si     0.122346     0.236639     0.142393
   si1_1   Si     0.094194     0.245263     0.126219
   si1_1   Si     0.100182     0.246479     0.093186
   si1_1   Si     0.072030     0.255103     0.077012
   si1_1   Si     0.083960     0.275438     0.136863
   si1_1   Si     0.055808     0.284062     0.120689
   si1_1   Si     0.070286     0.222496     0.132434
   si1_1   Si     0.042134     0.231120     0.116260
   si1_1   Si     0.054064     0.251454     0.176111
   si1_1   Si     0.025912     0.260078     0.159937
   si1_1   Si     0.031900     0.261295     0.126904
   si1_1   Si     0.003748     0.269919     0.110730
   si1_1   Si     0.015678     0.290253     0.170581
   si1_1   Si     0.002004     0.237311     0.166153
   si1_1   Si     0.018226     0.208353     0.122476
   si1_1   Si     0.144551     0.524225     0.373378
   si1_1   Si     0.106165     0.563024     0.367848
   si1_1   Si     0.104421     0.530417     0.423271
   si1_1   Si     0.076269     0.539041     0.407097
   si1_1   Si     0.066035     0.569216     0.417741
   si1_1   Si     0.273430     0.442869     0.268480
   si1_1   Si     0.245277     0.451493     0.252306
   si1_1   Si     0.229055     0.480451     0.295983
   si1_1   Si     0.235044     0.481668     0.262950
   si1_1   Si     0.206891     0.490292     0.246776
   si1_1   Si     0.190669     0.519250     0.290453
   si1_1   Si     0.205147     0.457684     0.302198
   si1_1   Si     0.176995     0.466308     0.286024
   si1_1   Si     0.188925     0.486643     0.345875
   si1_1   Si     0.160773     0.495267     0.329701
   si1_1   Si     0.166761     0.496483     0.296668
   si1_1   Si     0.138609     0.505107     0.280494
   si1_1   Si     0.150539     0.525442     0.340345
   si1_1   Si     0.122387     0.534066     0.324171
   si1_1   Si     0.136865     0.472500     0.335917
   si1_1   Si     0.108713     0.481124     0.319743
   si1_1   Si     0.120643     0.501458     0.379594
   si1_1   Si     0.092491     0.510082     0.363420
   si1_1   Si     0.098479     0.511299     0.330386
   si1_1   Si     0.070327     0.519923     0.314212
   si1_1   Si     0.082257     0.540257     0.374063
   si1_1   Si     0.054105     0.548881     0.357889
   si1_1   Si     0.068583     0.487315     0.369635
   si1_1   Si     0.040431     0.495939     0.353461
   si1_1   Si     0.052361     0.516274     0.413312
   si1_1   Si     0.024209     0.524898     0.397138
   si1_1   Si     0.030197     0.526114     0.364105
   si1_1   Si     0.002045     0.534738     0.347931
   si1_1   Si     0.000301     0.502131     0.403353
   si1_1   Si     0.291395     0.446518     0.169380
   si1_1   Si     0.261499     0.422534     0.208629
   si1_1   Si     0.267488     0.423751     0.175596
   si1_1   Si     0.239335     0.432375     0.159422
   si1_1   Si     0.251266     0.452709     0.219273
   si1_1   Si     0.223113     0.461333     0.203099
   si1_1   Si     0.237592     0.399767     0.214844
   si1_1   Si     0.209439     0.408391     0.198670
   si1_1   Si     0.221370     0.428726     0.258521
   si1_1   Si     0.193217     0.437350     0.242347
   si1_1   Si     0.199206     0.438566     0.209314
   si1_1   Si     0.171053     0.447190     0.193140
   si1_1   Si     0.182984     0.467525     0.252991
   si1_1   Si     0.154831     0.476149     0.236817
   si1_1   Si     0.169310     0.414583     0.248563
   si1_1   Si     0.141157     0.423207     0.232389
   si1_1   Si     0.153087     0.443541     0.292240
   si1_1   Si     0.124935     0.452165     0.276066
   si1_1   Si     0.130924     0.453382     0.243032
   si1_1   Si     0.102771     0.462006     0.226858
   si1_1   Si     0.114701     0.482340     0.286709
   si1_1   Si     0.086549     0.490964     0.270535
   si1_1   Si     0.101028     0.429398     0.282281
   si1_1   Si     0.072875     0.438022     0.266107
   si1_1   Si     0.084805     0.458357     0.325958
   si1_1   Si     0.056653     0.466981     0.309784
   si1_1   Si     0.062641     0.468197     0.276751
   si1_1   Si     0.034489     0.476821     0.260577
   si1_1   Si     0.046419     0.497156     0.320428
   si1_1   Si     0.018267     0.505780     0.304254
   si1_1   Si     0.032745     0.444214     0.315999
   si1_1   Si     0.004593     0.452838     0.299825
   si1_1   Si     0.016523     0.473172     0.359676
   si1_1   Si     0.255558     0.403416     0.115744
   si1_1   Si     0.225661     0.379433     0.154993
   si1_1   Si     0.231650     0.380649     0.121960
   si1_1   Si     0.203498     0.389273     0.105786
   si1_1   Si     0.215428     0.409608     0.165637
   si1_1   Si     0.187275     0.418232     0.149463
   si1_1   Si     0.201754     0.356666     0.161209
   si1_1   Si     0.173602     0.365290     0.145034
   si1_1   Si     0.185532     0.385624     0.204886
   si1_1   Si     0.157379     0.394248     0.188711
   si1_1   Si     0.163368     0.395465     0.155678
   si1_1   Si     0.135215     0.404089     0.139504
   si1_1   Si     0.147146     0.424423     0.199355
   si1_1   Si     0.118993     0.433047     0.183181
   si1_1   Si     0.133472     0.371481     0.194927
   si1_1   Si     0.105319     0.380105     0.178753
   si1_1   Si     0.117250     0.400440     0.238604
   si1_1   Si     0.089097     0.409064     0.222430
   si1_1   Si     0.095086     0.410280     0.189397
   si1_1   Si     0.066933     0.418904     0.173222
   si1_1   Si     0.078864     0.439239     0.233074
   si1_1   Si     0.050711     0.447863     0.216900
   si1_1   Si     0.065190     0.386297     0.228645
   si1_1   Si     0.037037     0.394921     0.212471
   si1_1   Si     0.048968     0.415255     0.272322
   si1_1   Si     0.020815     0.423879     0.256148
   si1_1   Si     0.026804     0.425096     0.223115
   si1_1   Si     0.010581     0.454054     0.266792
   si1_1   Si     0.189824     0.336331     0.101357
   si1_1   Si     0.195812     0.337548     0.068324
   si1_1   Si     0.167660     0.346172     0.052150
   si1_1   Si     0.179590     0.366506     0.112001
   si1_1   Si     0.151438     0.375130     0.095827
   si1_1   Si     0.165916     0.313564     0.107573
   si1_1   Si     0.137764     0.322188     0.091399
   si1_1   Si     0.149694     0.342523     0.151250
   si1_1   Si     0.121542     0.351147     0.135076
   si1_1   Si     0.127530     0.352363     0.102042
   si1_1   Si     0.099378     0.360987     0.085868
   si1_1   Si     0.111308     0.381322     0.145720
   si1_1   Si     0.083155     0.389946     0.129545
   si1_1   Si     0.097634     0.328380     0.141291
   si1_1   Si     0.069482     0.337004     0.125117
   si1_1   Si     0.081412     0.357338     0.184968
   si1_1   Si     0.053259     0.365962     0.168794
   si1_1   Si     0.059248     0.367179     0.135761
   si1_1   Si     0.031096     0.375803     0.119587
   si1_1   Si     0.043026     0.396137     0.179438
   si1_1   Si     0.014873     0.404761     0.163264
   si1_1   Si     0.029352     0.343195     0.175009
   si1_1   Si     0.001199     0.351819     0.158835
   si1_1   Si     0.013130     0.372154     0.218687
   si1_1   Si     0.153986     0.293230     0.047722
   si1_1   Si     0.143752     0.323405     0.058365
   si1_1   Si     0.115600     0.332029     0.042191
   si1_1   Si     0.130078     0.270463     0.053937
   si1_1   Si     0.101926     0.279087     0.037763
   si1_1   Si     0.113856     0.299421     0.097614
   si1_1   Si     0.085704     0.308045     0.081440
   si1_1   Si     0.091692     0.309262     0.048407
   si1_1   Si     0.063540     0.317886     0.032233
   si1_1   Si     0.075470     0.338220     0.092084
   si1_1   Si     0.047318     0.346844     0.075910
   si1_1   Si     0.061796     0.285278     0.087655
   si1_1   Si     0.033644     0.293902     0.071481
   si1_1   Si     0.045574     0.314237     0.131332
   si1_1   Si     0.017422     0.322861     0.115158
   si1_1   Si     0.023410     0.324077     0.082125
   si1_1   Si     0.007188     0.353036     0.125802
   si1_1   Si     0.196657     0.520467     0.257419
   si1_1   Si     0.168505     0.529091     0.241245
   si1_1   Si     0.130119     0.567890     0.235715
   si1_1   Si     0.128375     0.535282     0.291138
   si1_1   Si     0.100223     0.543906     0.274964
   si1_1   Si     0.112153     0.564241     0.334815
   si1_1   Si     0.084001     0.572865     0.318641
   si1_1   Si     0.089989     0.574081     0.285607
   si1_1   Si     0.061837     0.582705     0.269433
   si1_1   Si     0.060093     0.550098     0.324856
   si1_1   Si     0.031941     0.558722     0.308682
   si1_1   Si     0.043871     0.579056     0.368533
   si1_1   Si     0.297384     0.447734     0.136347
   si1_1   Si     0.269231     0.456358     0.120173
   si1_1   Si     0.253009     0.485317     0.163850
   si1_1   Si     0.258998     0.486533     0.130817
   si1_1   Si     0.230845     0.495157     0.114643
   si1_1   Si     0.214623     0.524116     0.158320
   si1_1   Si     0.229102     0.462550     0.170065
   si1_1   Si     0.200949     0.471174     0.153891
   si1_1   Si     0.212880     0.491508     0.213742
   si1_1   Si     0.184727     0.500132     0.197568
   si1_1   Si     0.190716     0.501349     0.164535
   si1_1   Si     0.162563     0.509973     0.148361
   si1_1   Si     0.174494     0.530307     0.208212
   si1_1   Si     0.146341     0.538931     0.192038
   si1_1   Si     0.160820     0.477365     0.203784
   si1_1   Si     0.132667     0.485989     0.187610
   si1_1   Si     0.144597     0.506324     0.247461
   si1_1   Si     0.116445     0.514948     0.231287
   si1_1   Si     0.122434     0.516164     0.198253
   si1_1   Si     0.094281     0.524788     0.182079
   si1_1   Si     0.106211     0.545123     0.241930
   si1_1   Si     0.078059     0.553747     0.225756
   si1_1   Si     0.092538     0.492181     0.237502
   si1_1   Si     0.064385     0.500805     0.221328
   si1_1   Si     0.076315     0.521139     0.281179
   si1_1   Si     0.048163     0.529763     0.265005
   si1_1   Si     0.054151     0.530980     0.231972
   si1_1   Si     0.025999     0.539604     0.215798
   si1_1   Si     0.037929     0.559938     0.275649
   si1_1   Si     0.009777     0.568562     0.259475
   si1_1   Si     0.024255     0.506996     0.271220
   si1_1   Si     0.008033     0.535955     0.314897
   si1_1   Si     0.245324     0.433591     0.126388
   si1_1   Si     0.217171     0.442215     0.110214
   si1_1   Si     0.206938     0.472390     0.120858
   si1_1   Si     0.178785     0.481014     0.104684
   si1_1   Si     0.193264     0.419448     0.116430
   si1_1   Si     0.165112     0.428072     0.100255
   si1_1   Si     0.177042     0.448407     0.160107
   si1_1   Si     0.148889     0.457031     0.143933
   si1_1   Si     0.154878     0.458247     0.110899
   si1_1   Si     0.126725     0.466871     0.094725
   si1_1   Si     0.138656     0.487206     0.154576
   si1_1   Si     0.110503     0.495830     0.138402
   si1_1   Si     0.124982     0.434264     0.150148
   si1_1   Si     0.096829     0.442888     0.133974
   si1_1   Si     0.108760     0.463222     0.193825
   si1_1   Si     0.080607     0.471846     0.177651
   si1_1   Si     0.086596     0.473063     0.144618
   si1_1   Si     0.058443     0.481687     0.128443
   si1_1   Si     0.070374     0.502021     0.188295
   si1_1   Si     0.042221     0.510645     0.172121
   si1_1   Si     0.056700     0.449079     0.183866
   si1_1   Si     0.028547     0.457703     0.167692
   si1_1   Si     0.040478     0.478038     0.227543
   si1_1   Si     0.012325     0.486662     0.211369
   si1_1   Si     0.018314     0.487878     0.178336
   si1_1   Si     0.002091     0.516837     0.222013
   si1_1   Si     0.209486     0.390490     0.072752
   si1_1   Si     0.181334     0.399114     0.056578
   si1_1   Si     0.171100     0.429289     0.067222
   si1_1   Si     0.142948     0.437913     0.051048
   si1_1   Si     0.157426     0.376347     0.062794
   si1_1   Si     0.129274     0.384971     0.046620
   si1_1   Si     0.141204     0.405305     0.106471
   si1_1   Si     0.113052     0.413929     0.090297
   si1_1   Si     0.119040     0.415146     0.057263
   si1_1   Si     0.090888     0.423770     0.041089
   si1_1   Si     0.102818     0.444104     0.100941
   si1_1   Si     0.074665     0.452728     0.084766
   si1_1   Si     0.089144     0.391162     0.096512
   si1_1   Si     0.060992     0.399786     0.080338
   si1_1   Si     0.072922     0.420121     0.140189
   si1_1   Si     0.044769     0.428745     0.124015
   si1_1   Si     0.050758     0.429961     0.090982
   si1_1   Si     0.022606     0.438585     0.074808
   si1_1   Si     0.034536     0.458920     0.134659
   si1_1   Si     0.006383     0.467544     0.118485
   si1_1   Si     0.020862     0.405978     0.130230
   si1_1   Si     0.004640     0.434936     0.173908
   si1_1   Si     0.105366     0.362204     0.052835
   si1_1   Si     0.077214     0.370828     0.036661
   si1_1   Si     0.083202     0.372044     0.003628
   si1_1   Si     0.066980     0.401003     0.047305
   si1_1   Si     0.038828     0.409627     0.031131
   si1_1   Si     0.053306     0.348061     0.042876
   si1_1   Si     0.025154     0.356685     0.026702
   si1_1   Si     0.037084     0.377019     0.086553
   si1_1   Si     0.008932     0.385643     0.070379
   si1_1   Si     0.014920     0.386860     0.037346
   si1_1   Si     0.220612     0.525332     0.125286
   si1_1   Si     0.192459     0.533956     0.109112
   si1_1   Si     0.154073     0.572755     0.103582
   si1_1   Si     0.152330     0.540148     0.159005
   si1_1   Si     0.124177     0.548772     0.142831
   si1_1   Si     0.136107     0.569106     0.202682
   si1_1   Si     0.107955     0.577730     0.186508
   si1_1   Si     0.113944     0.578947     0.153474
   si1_1   Si     0.084048     0.554963     0.192723
   si1_1   Si     0.055895     0.563587     0.176549
   si1_1   Si     0.015765     0.569779     0.226441
   si1_1   Si     0.184774     0.482231     0.071651
   si1_1   Si     0.156622     0.490855     0.055476
   si1_1   Si     0.168552     0.511189     0.115328
   si1_1   Si     0.140399     0.519813     0.099154
   si1_1   Si     0.146388     0.521030     0.066120
   si1_1   Si     0.118235     0.529654     0.049946
   si1_1   Si     0.130166     0.549988     0.109797
   si1_1   Si     0.102013     0.558612     0.093623
   si1_1   Si     0.116492     0.497046     0.105369
   si1_1   Si     0.088339     0.505670     0.089195
   si1_1   Si     0.100270     0.526005     0.149046
   si1_1   Si     0.072117     0.534629     0.132872
   si1_1   Si     0.078106     0.535845     0.099839
   si1_1   Si     0.049953     0.544469     0.083665
   si1_1   Si     0.061884     0.564804     0.143516
   si1_1   Si     0.048210     0.511862     0.139087
   si1_1   Si     0.020057     0.520486     0.122913
   si1_1   Si     0.031988     0.540820     0.182764
   si1_1   Si     0.003835     0.549444     0.166590
   si1_1   Si     0.009824     0.550661     0.133557
   si1_1   Si     0.132714     0.468088     0.061692
   si1_1   Si     0.104562     0.476712     0.045518
   si1_1   Si     0.094328     0.506887     0.056162
   si1_1   Si     0.066175     0.515511     0.039987
   si1_1   Si     0.080654     0.453945     0.051733
   si1_1   Si     0.052502     0.462569     0.035559
   si1_1   Si     0.064432     0.482903     0.095410
   si1_1   Si     0.036279     0.491527     0.079236
   si1_1   Si     0.042268     0.492744     0.046203
   si1_1   Si     0.014116     0.501368     0.030029
   si1_1   Si     0.026046     0.521702     0.089880
   si1_1   Si     0.012372     0.468760     0.085452
   si1_1   Si     0.058490     0.463785     0.002526
   si1_1   Si     0.028594     0.439802     0.041774
   si1_1   Si     0.000442     0.448426     0.025600
   si1_1   Si     0.108002     0.559829     0.060590
   si1_1   Si     0.079849     0.568453     0.044416
   si1_1   Si     0.055942     0.545686     0.050631
   si1_1   Si     0.003882     0.531543     0.040673
   si1_1   Si     0.725454     0.925594     0.365386
   si1_1   Si     0.688292     0.885497     0.331486
   si1_1   Si     0.702703     0.888306     0.301270
   si1_1   Si     0.688072     0.836761     0.289501
   si1_1   Si     0.654385     0.878301     0.277296
   si1_1   Si     0.665541     0.848209     0.267370
   si1_1   Si     0.679951     0.851018     0.237154
   si1_1   Si     0.680171     0.899754     0.279139
   si1_1   Si     0.694581     0.902563     0.248923
   si1_1   Si     0.665321     0.799473     0.225386
   si1_1   Si     0.642789     0.810921     0.203254
   si1_1   Si     0.657200     0.813729     0.173038
   si1_1   Si     0.657419     0.862466     0.215023
   si1_1   Si     0.671830     0.865275     0.184807
   si1_1   Si     0.649298     0.876723     0.162676
   si1_1   Si     0.663709     0.879531     0.132460
   si1_1   Si     0.627939     0.710639     0.149501
   si1_1   Si     0.628159     0.759376     0.191485
   si1_1   Si     0.642570     0.762184     0.161270
   si1_1   Si     0.620038     0.773633     0.139138
   si1_1   Si     0.634448     0.776441     0.108923
   si1_1   Si     0.634668     0.825178     0.150907
   si1_1   Si     0.649079     0.827986     0.120691
   si1_1   Si     0.830211     0.931346     0.465680
   si1_1   Si     0.781893     0.921342     0.441707
   si1_1   Si     0.807679     0.942794     0.443549
   si1_1   Si     0.822090     0.945603     0.413333
   si1_1   Si     0.807459     0.894058     0.401565
   si1_1   Si     0.759142     0.884053     0.377591
   si1_1   Si     0.759361     0.932790     0.419575
   si1_1   Si     0.773772     0.935598     0.389360
   si1_1   Si     0.784928     0.905506     0.379433
   si1_1   Si     0.799338     0.908315     0.349217
   si1_1   Si     0.799558     0.957051     0.391202
   si1_1   Si     0.813968     0.959860     0.360986
   si1_1   Si     0.751240     0.947047     0.367228
   si1_1   Si     0.765651     0.949855     0.337012
   si1_1   Si     0.791437     0.971308     0.338855
   si1_1   Si     0.805847     0.974117     0.308639
   si1_1   Si     0.770078     0.805225     0.325680
   si1_1   Si     0.770298     0.853961     0.367664
   si1_1   Si     0.784708     0.856770     0.337449
   si1_1   Si     0.736390     0.846765     0.313475
   si1_1   Si     0.736610     0.895502     0.355459
   si1_1   Si     0.751020     0.898310     0.325244
   si1_1   Si     0.762176     0.868218     0.315317
   si1_1   Si     0.776587     0.871027     0.285102
   si1_1   Si     0.776807     0.919763     0.327086
   si1_1   Si     0.791217     0.922572     0.296870
   si1_1   Si     0.728489     0.909759     0.303112
   si1_1   Si     0.742899     0.912567     0.272897
   si1_1   Si     0.768685     0.934020     0.274739
   si1_1   Si     0.783096     0.936829     0.244523
   si1_1   Si     0.797726     0.988374     0.256292
   si1_1   Si     0.747326     0.767936     0.261564
   si1_1   Si     0.747546     0.816673     0.303549
   si1_1   Si     0.761957     0.819481     0.273333
   si1_1   Si     0.699228     0.806668     0.279575
   si1_1   Si     0.713639     0.809477     0.249359
   si1_1   Si     0.713859     0.858213     0.291344
   si1_1   Si     0.728269     0.861022     0.261128
   si1_1   Si     0.739425     0.830930     0.251201
   si1_1   Si     0.753835     0.833738     0.220986
   si1_1   Si     0.754055     0.882475     0.262970
   si1_1   Si     0.768466     0.885283     0.232754
   si1_1   Si     0.705737     0.872470     0.238996
   si1_1   Si     0.720148     0.875279     0.208781
   si1_1   Si     0.720368     0.924015     0.250765
   si1_1   Si     0.734778     0.926824     0.220549
   si1_1   Si     0.745934     0.896732     0.210623
   si1_1   Si     0.760344     0.899540     0.180407
   si1_1   Si     0.760564     0.948277     0.222392
   si1_1   Si     0.774975     0.951085     0.192176
   si1_1   Si     0.699009     0.757932     0.237591
   si1_1   Si     0.710165     0.727840     0.227664
   si1_1   Si     0.724575     0.730648     0.197448
   si1_1   Si     0.724795     0.779385     0.239433
   si1_1   Si     0.739205     0.782193     0.209217
   si1_1   Si     0.676477     0.769380     0.215459
   si1_1   Si     0.690887     0.772189     0.185243
   si1_1   Si     0.691107     0.820925     0.227228
   si1_1   Si     0.705518     0.823734     0.197012
   si1_1   Si     0.716674     0.793642     0.187086
   si1_1   Si     0.731084     0.796450     0.156870
   si1_1   Si     0.731304     0.845187     0.198854
   si1_1   Si     0.745714     0.847995     0.168639
   si1_1   Si     0.682986     0.835182     0.174881
   si1_1   Si     0.697396     0.837991     0.144665
   si1_1   Si     0.697616     0.886727     0.186649
   si1_1   Si     0.712027     0.889536     0.156434
   si1_1   Si     0.723183     0.859444     0.146507
   si1_1   Si     0.737593     0.862252     0.116291
   si1_1   Si     0.737813     0.910989     0.158276
   si1_1   Si     0.752223     0.913797     0.128060
   si1_1   Si     0.689495     0.900984     0.134302
   si1_1   Si     0.709945     0.679103     0.185680
   si1_1   Si     0.676257     0.720644     0.173475
   si1_1   Si     0.687413     0.690551     0.163548
   si1_1   Si     0.701824     0.693360     0.133332
   si1_1   Si     0.702043     0.742097     0.175317
   si1_1   Si     0.716454     0.744905     0.145101
   si1_1   Si     0.653726     0.732092     0.151343
   si1_1   Si     0.668136     0.734901     0.121127
   si1_1   Si     0.668356     0.783637     0.163112
   si1_1   Si     0.682766     0.786446     0.132896
   si1_1   Si     0.693922     0.756353     0.122970
   si1_1   Si     0.708333     0.759162     0.092754
   si1_1   Si     0.708552     0.807898     0.134738
   si1_1   Si     0.722963     0.810707     0.104523
   si1_1   Si     0.660235     0.797894     0.110765
   si1_1   Si     0.674645     0.800703     0.080549
   si1_1   Si     0.674865     0.849439     0.122533
   si1_1   Si     0.689275     0.852248     0.092318
   si1_1   Si     0.700431     0.822155     0.082391
   si1_1   Si     0.714842     0.824964     0.052176
   si1_1   Si     0.715061     0.873700     0.094160
   si1_1   Si     0.687193     0.641815     0.121564
   si1_1   Si     0.638876     0.631811     0.097590
   si1_1   Si     0.653506     0.683356     0.109359
   si1_1   Si     0.664662     0.653263     0.099432
   si1_1   Si     0.679072     0.656072     0.069217
   si1_1   Si     0.679292     0.704808     0.111201
   si1_1   Si     0.693702     0.707617     0.080985
   si1_1   Si     0.645604     0.746349     0.098996
   si1_1   Si     0.685801     0.770610     0.070623
   si1_1   Si     0.863899     0.889805     0.477885
   si1_1   Si     0.889465     0.862522     0.437743
   si1_1   Si     0.889685     0.911258     0.479728
   si1_1   Si     0.904095     0.914067     0.449512
   si1_1   Si     0.841367     0.901254     0.455754
   si1_1   Si     0.855777     0.904062     0.425538
   si1_1   Si     0.870407     0.955607     0.437307
   si1_1   Si     0.881563     0.925515     0.427380
   si1_1   Si     0.895974     0.928324     0.397165
   si1_1   Si     0.910604     0.979869     0.408933
   si1_1   Si     0.847876     0.967056     0.415176
   si1_1   Si     0.862286     0.969864     0.384960
   si1_1   Si     0.888072     0.991317     0.386802
   si1_1   Si     0.902483     0.994126     0.356586
   si1_1   Si     0.841147     0.852517     0.413770
   si1_1   Si     0.852303     0.822425     0.403843
   si1_1   Si     0.866714     0.825234     0.373627
   si1_1   Si     0.866933     0.873970     0.415612
   si1_1   Si     0.881344     0.876779     0.385396
   si1_1   Si     0.818615     0.863966     0.391638
   si1_1   Si     0.833026     0.866774     0.361422
   si1_1   Si     0.833246     0.915511     0.403407
   si1_1   Si     0.847656     0.918319     0.373191
   si1_1   Si     0.858812     0.888227     0.363265
   si1_1   Si     0.873223     0.891036     0.333049
   si1_1   Si     0.873442     0.939772     0.375033
   si1_1   Si     0.887853     0.942581     0.344818
   si1_1   Si     0.825124     0.929767     0.351060
   si1_1   Si     0.839535     0.932576     0.320844
   si1_1   Si     0.839755     0.981313     0.362828
   si1_1   Si     0.854165     0.984121     0.332613
   si1_1   Si     0.865321     0.954029     0.322686
   si1_1   Si     0.879731     0.956838     0.292470
   si1_1   Si     0.831633     0.995569     0.310481
   si1_1   Si     0.846044     0.998378     0.280265
   si1_1   Si     0.852083     0.773689     0.361859
   si1_1   Si     0.818396     0.815229     0.349654
   si1_1   Si     0.829552     0.785137     0.339727
   si1_1   Si     0.843962     0.787945     0.309511
   si1_1   Si     0.844182     0.836682     0.351496
   si1_1   Si     0.858592     0.839490     0.321280
   si1_1   Si     0.795864     0.826677     0.327522
   si1_1   Si     0.810274     0.829486     0.297307
   si1_1   Si     0.810494     0.878222     0.339291
   si1_1   Si     0.824905     0.881031     0.309075
   si1_1   Si     0.836061     0.850939     0.299149
   si1_1   Si     0.850471     0.853747     0.268933
   si1_1   Si     0.850691     0.902484     0.310917
   si1_1   Si     0.865101     0.905292     0.280702
   si1_1   Si     0.802373     0.892479     0.286944
   si1_1   Si     0.816783     0.895288     0.256728
   si1_1   Si     0.817003     0.944024     0.298712
   si1_1   Si     0.831414     0.946833     0.268497
   si1_1   Si     0.842570     0.916741     0.258570
   si1_1   Si     0.856980     0.919549     0.228355
   si1_1   Si     0.857200     0.968286     0.270339
   si1_1   Si     0.871610     0.971094     0.240123
   si1_1   Si     0.808882     0.958281     0.246365
   si1_1   Si     0.823292     0.961090     0.216150
   si1_1   Si     0.849079     0.982543     0.217992
   si1_1   Si     0.863489     0.985351     0.187776
   si1_1   Si     0.829332     0.736400     0.297743
   si1_1   Si     0.781014     0.726396     0.273769
   si1_1   Si     0.781234     0.775132     0.315754
   si1_1   Si     0.795644     0.777941     0.285538
   si1_1   Si     0.806800     0.747849     0.275611
   si1_1   Si     0.821211     0.750657     0.245396
   si1_1   Si     0.821430     0.799394     0.287380
   si1_1   Si     0.835841     0.802202     0.257164
   si1_1   Si     0.773113     0.789389     0.263406
   si1_1   Si     0.787523     0.792198     0.233191
   si1_1   Si     0.787743     0.840934     0.275175
   si1_1   Si     0.802153     0.843743     0.244959
   si1_1   Si     0.813309     0.813651     0.235033
   si1_1   Si     0.827720     0.816459     0.204817
   si1_1   Si     0.827939     0.865196     0.246802
   si1_1   Si     0.842350     0.868004     0.216586
   si1_1   Si     0.779622     0.855191     0.222828
   si1_1   Si     0.794032     0.858000     0.192612
   si1_1   Si     0.794252     0.906736     0.234597
   si1_1   Si     0.808662     0.909545     0.204381
   si1_1   Si     0.819818     0.879453     0.194454
   si1_1   Si     0.834229     0.882261     0.164239
   si1_1   Si     0.834448     0.930998     0.206223
   si1_1   Si     0.848859     0.933806     0.176007
   si1_1   Si     0.786131     0.920993     0.182249
   si1_1   Si     0.800541     0.923802     0.152034
   si1_1   Si     0.800761     0.972538     0.194018
   si1_1   Si     0.815171     0.975347     0.163802
   si1_1   Si     0.826327     0.945254     0.153876
   si1_1   Si     0.840738     0.948063     0.123660
   si1_1   Si     0.840957     0.996800     0.165645
   si1_1   Si     0.791950     0.647567     0.221858
   si1_1   Si     0.792170     0.696304     0.263843
   si1_1   Si     0.806581     0.699112     0.233627
   si1_1   Si     0.758263     0.689108     0.209653
   si1_1   Si     0.758482     0.737844     0.251638
   si1_1   Si     0.772893     0.740653     0.221422
   si1_1   Si     0.784049     0.710560     0.211495
   si1_1   Si     0.798459     0.713369     0.181280
   si1_1   Si     0.798679     0.762105     0.223264
   si1_1   Si     0.813090     0.764914     0.193048
   si1_1   Si     0.750361     0.752101     0.199291
   si1_1   Si     0.764772     0.754910     0.169075
   si1_1   Si     0.764991     0.803646     0.211059
   si1_1   Si     0.779402     0.806455     0.180843
   si1_1   Si     0.790558     0.776362     0.170917
   si1_1   Si     0.804968     0.779171     0.140701
   si1_1   Si     0.805188     0.827907     0.182686
   si1_1   Si     0.819598     0.830716     0.152470
   si1_1   Si     0.756870     0.817903     0.158712
   si1_1   Si     0.771281     0.820712     0.128496
   si1_1   Si     0.771500     0.869448     0.170481
   si1_1   Si     0.785911     0.872257     0.140265
   si1_1   Si     0.797067     0.842164     0.130339
   si1_1   Si     0.811477     0.844973     0.100123
   si1_1   Si     0.811697     0.893709     0.142107
   si1_1   Si     0.826107     0.896518     0.111892
   si1_1   Si     0.763379     0.883705     0.118134
   si1_1   Si     0.777790     0.886514     0.087918
   si1_1   Si     0.778009     0.935250     0.129902
   si1_1   Si     0.803576     0.907966     0.089760
   si1_1   Si     0.769199     0.610279     0.157742
   si1_1   Si     0.769419     0.659015     0.199727
   si1_1   Si     0.783829     0.661824     0.169511
   si1_1   Si     0.735511     0.651820     0.145537
   si1_1   Si     0.735731     0.700556     0.187522
   si1_1   Si     0.750141     0.703365     0.157306
   si1_1   Si     0.761297     0.673272     0.147380
   si1_1   Si     0.775708     0.676081     0.117164
   si1_1   Si     0.775928     0.724817     0.159148
   si1_1   Si     0.790338     0.727626     0.128933
   si1_1   Si     0.727610     0.714813     0.135175
   si1_1   Si     0.742020     0.717621     0.104959
   si1_1   Si     0.742240     0.766358     0.146943
   si1_1   Si     0.756650     0.769167     0.116728
   si1_1   Si     0.767806     0.739074     0.106801
   si1_1   Si     0.782217     0.741883     0.076585
   si1_1   Si     0.782437     0.790619     0.118570
   si1_1   Si     0.796847     0.793428     0.088354
   si1_1   Si     0.734119     0.780615     0.094596
   si1_1   Si     0.748529     0.783423     0.064380
   si1_1   Si     0.748749     0.832160     0.106365
   si1_1   Si     0.763159     0.834969     0.076149
   si1_1   Si     0.774315     0.804876     0.066223
   si1_1   Si     0.788726     0.807685     0.036007
   si1_1   Si     0.788946     0.856421     0.077991
   si1_1   Si     0.803356     0.859230     0.047776
   si1_1   Si     0.740628     0.846417     0.054018
   si1_1   Si     0.746448     0.572991     0.093626
   si1_1   Si     0.746667     0.621727     0.135611
   si1_1   Si     0.761078     0.624536     0.105395
   si1_1   Si     0.698349     0.611723     0.111637
   si1_1   Si     0.712760     0.614531     0.081422
   si1_1   Si     0.712980     0.663268     0.123406
   si1_1   Si     0.727390     0.666076     0.093190
   si1_1   Si     0.738546     0.635984     0.083264
   si1_1   Si     0.752957     0.638793     0.053048
   si1_1   Si     0.753176     0.687529     0.095032
   si1_1   Si     0.767587     0.690338     0.064817
   si1_1   Si     0.704858     0.677525     0.071059
   si1_1   Si     0.719269     0.680333     0.040843
   si1_1   Si     0.719489     0.729070     0.082827
   si1_1   Si     0.733899     0.731878     0.052612
   si1_1   Si     0.745055     0.701786     0.042685
   si1_1   Si     0.759465     0.704595     0.012470
   si1_1   Si     0.759685     0.753331     0.054454
   si1_1   Si     0.774096     0.756140     0.024238
   si1_1   Si     0.725998     0.794872     0.042249
   si1_1   Si     0.766194     0.819133     0.013876
   si1_1   Si     0.723916     0.584439     0.071495
   si1_1   Si     0.738326     0.587248     0.041279
   si1_1   Si     0.690228     0.625980     0.059290
   si1_1   Si     0.704639     0.628788     0.029074
   si1_1   Si     0.715795     0.598696     0.019148
   si1_1   Si     0.730425     0.650241     0.030917
   si1_1   Si     0.986101     0.882531     0.485691
   si1_1   Si     0.971470     0.830986     0.473922
   si1_1   Si     0.923153     0.820981     0.449948
   si1_1   Si     0.923372     0.869718     0.491933
   si1_1   Si     0.937783     0.872526     0.461717
   si1_1   Si     0.948939     0.842434     0.451790
   si1_1   Si     0.963349     0.845243     0.421575
   si1_1   Si     0.963569     0.893979     0.463559
   si1_1   Si     0.977979     0.896788     0.433343
   si1_1   Si     0.915251     0.883974     0.439585
   si1_1   Si     0.929662     0.886783     0.409370
   si1_1   Si     0.929881     0.935520     0.451354
   si1_1   Si     0.944292     0.938328     0.421138
   si1_1   Si     0.955448     0.908236     0.411212
   si1_1   Si     0.969858     0.911045     0.380996
   si1_1   Si     0.970078     0.959781     0.422981
   si1_1   Si     0.984488     0.962590     0.392765
   si1_1   Si     0.921760     0.949776     0.399007
   si1_1   Si     0.936171     0.952585     0.368791
   si1_1   Si     0.961957     0.974038     0.370633
   si1_1   Si     0.976367     0.976846     0.340418
   si1_1   Si     0.934089     0.742152     0.398037
   si1_1   Si     0.934309     0.790889     0.440022
   si1_1   Si     0.948719     0.793697     0.409806
   si1_1   Si     0.900401     0.783693     0.385832
   si1_1   Si     0.900621     0.832429     0.427817
   si1_1   Si     0.915031     0.835238     0.397601
   si1_1   Si     0.926187     0.805146     0.387674
   si1_1   Si     0.940598     0.807954     0.357459
   si1_1   Si     0.940818     0.856691     0.399443
   si1_1   Si     0.955228     0.859499     0.369227
   si1_1   Si     0.892500     0.846686     0.375470
   si1_1   Si     0.906910     0.849495     0.345254
   si1_1   Si     0.907130     0.898231     0.387238
   si1_1   Si     0.921540     0.901040     0.357023
   si1_1   Si     0.932696     0.870948     0.347096
   si1_1   Si     0.947107     0.873756     0.316880
   si1_1   Si     0.947326     0.922493     0.358865
   si1_1   Si     0.961737     0.925301     0.328649
   si1_1   Si     0.899009     0.912488     0.334891
   si1_1   Si     0.913419     0.915297     0.304675
   si1_1   Si     0.913639     0.964033     0.346660
   si1_1   Si     0.928049     0.966842     0.316444
   si1_1   Si     0.939205     0.936750     0.306518
   si1_1   Si     0.953616     0.939558     0.276302
   si1_1   Si     0.953835     0.988295     0.318286
   si1_1   Si     0.968246     0.991103     0.288071
   si1_1   Si     0.905518     0.978290     0.294313
   si1_1   Si     0.919928     0.981099     0.264097
   si1_1   Si     0.911337     0.704864     0.333921
   si1_1   Si     0.911557     0.753601     0.375906
   si1_1   Si     0.925968     0.756409     0.345690
   si1_1   Si     0.863239     0.743596     0.351932
   si1_1   Si     0.877650     0.746405     0.321716
   si1_1   Si     0.877870     0.795141     0.363701
   si1_1   Si     0.892280     0.797950     0.333485
   si1_1   Si     0.903436     0.767858     0.323559
   si1_1   Si     0.917846     0.770666     0.293343
   si1_1   Si     0.918066     0.819403     0.335327
   si1_1   Si     0.932477     0.822211     0.305112
   si1_1   Si     0.869748     0.809398     0.311354
   si1_1   Si     0.884159     0.812207     0.281138
   si1_1   Si     0.884378     0.860943     0.323122
   si1_1   Si     0.898789     0.863752     0.292907
   si1_1   Si     0.909945     0.833660     0.282980
   si1_1   Si     0.924355     0.836468     0.252764
   si1_1   Si     0.924575     0.885205     0.294749
   si1_1   Si     0.938986     0.888013     0.264533
   si1_1   Si     0.876257     0.875200     0.270775
   si1_1   Si     0.890668     0.878009     0.240560
   si1_1   Si     0.890887     0.926745     0.282544
   si1_1   Si     0.905298     0.929554     0.252328
   si1_1   Si     0.916454     0.899462     0.242402
   si1_1   Si     0.930864     0.902270     0.212186
   si1_1   Si     0.931084     0.951007     0.254170
   si1_1   Si     0.945495     0.953815     0.223955
   si1_1   Si     0.882766     0.941002     0.230197
   si1_1   Si     0.897177     0.943811     0.199981
   si1_1   Si     0.897396     0.992547     0.241965
   si1_1   Si     0.911807     0.995356     0.211750
   si1_1   Si     0.922963     0.965263     0.201823
   si1_1   Si     0.937373     0.968072     0.171608
   si1_1   Si     0.863020     0.694860     0.309948
   si1_1   Si     0.874176     0.664767     0.300021
   si1_1   Si     0.888586     0.667576     0.269806
   si1_1   Si     0.888806     0.716312     0.311790
   si1_1   Si     0.903216     0.719121     0.281574
   si1_1   Si     0.840488     0.706308     0.287816
   si1_1   Si     0.854898     0.709117     0.257601
   si1_1   Si     0.855118     0.757853     0.299585
   si1_1   Si     0.869529     0.760662     0.269369
   si1_1   Si     0.880685     0.730569     0.259443
   si1_1   Si     0.895095     0.733378     0.229227
   si1_1   Si     0.895315     0.782114     0.271211
   si1_1   Si     0.909725     0.784923     0.240996
   si1_1   Si     0.846997     0.772110     0.247238
   si1_1   Si     0.861407     0.774919     0.217022
   si1_1   Si     0.861627     0.823655     0.259007
   si1_1   Si     0.876038     0.826464     0.228791
   si1_1   Si     0.887194     0.796371     0.218864
   si1_1   Si     0.901604     0.799180     0.188649
   si1_1   Si     0.901824     0.847916     0.230633
   si1_1   Si     0.916234     0.850725     0.200417
   si1_1   Si     0.853506     0.837912     0.206659
   si1_1   Si     0.867916     0.840721     0.176444
   si1_1   Si     0.868136     0.889457     0.218428
   si1_1   Si     0.882547     0.892266     0.188212
   si1_1   Si     0.893702     0.862173     0.178286
   si1_1   Si     0.908113     0.864982     0.148070
   si1_1   Si     0.908333     0.913718     0.190055
   si1_1   Si     0.922743     0.916527     0.159839
   si1_1   Si     0.860015     0.903714     0.166081
   si1_1   Si     0.874425     0.906523     0.135865
   si1_1   Si     0.874645     0.955259     0.177850
   si1_1   Si     0.889055     0.958068     0.147634
   si1_1   Si     0.900211     0.927975     0.137707
   si1_1   Si     0.914622     0.930784     0.107492
   si1_1   Si     0.914842     0.979520     0.149476
   si1_1   Si     0.873956     0.616031     0.258037
   si1_1   Si     0.840268     0.657572     0.245832
   si1_1   Si     0.851424     0.627479     0.235905
   si1_1   Si     0.865835     0.630288     0.205690
   si1_1   Si     0.866054     0.679024     0.247674
   si1_1   Si     0.880465     0.681833     0.217458
   si1_1   Si     0.817737     0.669020     0.223700
   si1_1   Si     0.832147     0.671828     0.193485
   si1_1   Si     0.832367     0.720565     0.235469
   si1_1   Si     0.846777     0.723374     0.205253
   si1_1   Si     0.857933     0.693281     0.195327
   si1_1   Si     0.872344     0.696090     0.165111
   si1_1   Si     0.872563     0.744826     0.207096
   si1_1   Si     0.886974     0.747635     0.176880
   si1_1   Si     0.824245     0.734822     0.183122
   si1_1   Si     0.838656     0.737630     0.152906
   si1_1   Si     0.838876     0.786367     0.194891
   si1_1   Si     0.853286     0.789176     0.164675
   si1_1   Si     0.864442     0.759083     0.154748
   si1_1   Si     0.878853     0.761892     0.124533
   si1_1   Si     0.879072     0.810628     0.166517
   si1_1   Si     0.893483     0.813437     0.136301
   si1_1   Si     0.830754     0.800624     0.142543
   si1_1   Si     0.845165     0.803432     0.112328
   si1_1   Si     0.845385     0.852169     0.154312
   si1_1   Si     0.859795     0.854977     0.124096
   si1_1   Si     0.870951     0.824885     0.114170
   si1_1   Si     0.885362     0.827694     0.083954
   si1_1   Si     0.885581     0.876430     0.125939
   si1_1   Si     0.899992     0.879239     0.095723
   si1_1   Si     0.837263     0.866426     0.101965
   si1_1   Si     0.851674     0.869234     0.071749
   si1_1   Si     0.851894     0.917971     0.113734
   si1_1   Si     0.866304     0.920779     0.083518
   si1_1   Si     0.877460     0.890687     0.073592
   si1_1   Si     0.851204     0.578743     0.193921
   si1_1   Si     0.817517     0.620283     0.181716
   si1_1   Si     0.828673     0.590191     0.171790
   si1_1   Si     0.843083     0.593000     0.141574
   si1_1   Si     0.843303     0.641736     0.183558
   si1_1   Si     0.857713     0.644545     0.153342
   si1_1   Si     0.794985     0.631732     0.159585
   si1_1   Si     0.809396     0.634540     0.129369
   si1_1   Si     0.809615     0.683277     0.171353
   si1_1   Si     0.824026     0.686085     0.141138
   si1_1   Si     0.835182     0.655993     0.131211
   si1_1   Si     0.849592     0.658802     0.100995
   si1_1   Si     0.849812     0.707538     0.142980
   si1_1   Si     0.864222     0.710347     0.112764
   si1_1   Si     0.801494     0.697534     0.119006
   si1_1   Si     0.815905     0.700342     0.088790
   si1_1   Si     0.816124     0.749079     0.130775
   si1_1   Si     0.830535     0.751887     0.100559
   si1_1   Si     0.841691     0.721795     0.090633
   si1_1   Si     0.856101     0.724604     0.060417
   si1_1   Si     0.856321     0.773340     0.102401
   si1_1   Si     0.870731     0.776149     0.072186
   si1_1   Si     0.808003     0.763336     0.078428
   si1_1   Si     0.822414     0.766144     0.048212
   si1_1   Si     0.822633     0.814881     0.090196
   si1_1   Si     0.837044     0.817689     0.059981
   si1_1   Si     0.848200     0.787597     0.050054
   si1_1   Si     0.862610     0.790406     0.019838
   si1_1   Si     0.862830     0.839142     0.061823
   si1_1   Si     0.877240     0.841951     0.031607
   si1_1   Si     0.814512     0.829138     0.037849
   si1_1   Si     0.828922     0.831946     0.007633
   si1_1   Si     0.780355     0.580187     0.147816
   si1_1   Si     0.794765     0.582995     0.117600
   si1_1   Si     0.805921     0.552903     0.107674
   si1_1   Si     0.820332     0.555712     0.077458
   si1_1   Si     0.820552     0.604448     0.119442
   si1_1   Si     0.834962     0.607257     0.089227
   si1_1   Si     0.772234     0.594443     0.095469
   si1_1   Si     0.786644     0.597252     0.065253
   si1_1   Si     0.786864     0.645989     0.107237
   si1_1   Si     0.801274     0.648797     0.077022
   si1_1   Si     0.812430     0.618705     0.067095
   si1_1   Si     0.826841     0.621514     0.036879
   si1_1   Si     0.827061     0.670250     0.078864
   si1_1   Si     0.841471     0.673059     0.048648
   si1_1   Si     0.778743     0.660245     0.054890
   si1_1   Si     0.793153     0.663054     0.024675
   si1_1   Si     0.793373     0.711791     0.066659
   si1_1   Si     0.807783     0.714599     0.036443
   si1_1   Si     0.818939     0.684507     0.026517
   si1_1   Si     0.833569     0.736052     0.038285
   si1_1   Si     0.847980     0.738861     0.008070
   si1_1   Si     0.785252     0.726047     0.014312
   si1_1   Si     0.799882     0.777593     0.026080
   si1_1   Si     0.757604     0.542898     0.083700
   si1_1   Si     0.772014     0.545707     0.053484
   si1_1   Si     0.797800     0.567160     0.055326
   si1_1   Si     0.812211     0.569968     0.025111
   si1_1   Si     0.749482     0.557155     0.031353
   si1_1   Si     0.764112     0.608700     0.043122
   si1_1   Si     0.778523     0.611509     0.012906
   si1_1   Si     0.789679     0.581417     0.002979
   si1_1   Si     0.804309     0.632962     0.014748
   si1_1   Si     0.770621     0.674502     0.002543
   si1_1   Si     0.982626     0.800893     0.463995
   si1_1   Si     0.997037     0.803702     0.433780
   si1_1   Si     0.997257     0.852438     0.475764
   si1_1   Si     0.989135     0.866695     0.423417
   si1_1   Si     0.995644     0.932497     0.382838
   si1_1   Si     0.982407     0.752157     0.422011
   si1_1   Si     0.993563     0.722065     0.412084
   si1_1   Si     0.959875     0.763605     0.399879
   si1_1   Si     0.974285     0.766414     0.369664
   si1_1   Si     0.974505     0.815150     0.411648
   si1_1   Si     0.988916     0.817959     0.381432
   si1_1   Si     0.966384     0.829407     0.359301
   si1_1   Si     0.980794     0.832216     0.329085
   si1_1   Si     0.981014     0.880952     0.371070
   si1_1   Si     0.995425     0.883761     0.340854
   si1_1   Si     0.972893     0.895209     0.318723
   si1_1   Si     0.987303     0.898018     0.288507
   si1_1   Si     0.987523     0.946754     0.330491
   si1_1   Si     0.979402     0.961011     0.278144
   si1_1   Si     0.993812     0.963820     0.247928
   si1_1   Si     0.993343     0.673328     0.370100
   si1_1   Si     0.945025     0.663324     0.346126
   si1_1   Si     0.945245     0.712060     0.388111
   si1_1   Si     0.959655     0.714869     0.357895
   si1_1   Si     0.970811     0.684776     0.347969
   si1_1   Si     0.985222     0.687585     0.317753
   si1_1   Si     0.985441     0.736321     0.359737
   si1_1   Si     0.999852     0.739130     0.329522
   si1_1   Si     0.937124     0.726317     0.335764
   si1_1   Si     0.951534     0.729126     0.305548
   si1_1   Si     0.951754     0.777862     0.347532
   si1_1   Si     0.966164     0.780671     0.317317
   si1_1   Si     0.977320     0.750578     0.307390
   si1_1   Si     0.991731     0.753387     0.277174
   si1_1   Si     0.991950     0.802123     0.319159
   si1_1   Si     0.943633     0.792119     0.295185
   si1_1   Si     0.958043     0.794928     0.264969
   si1_1   Si     0.958263     0.843664     0.306954
   si1_1   Si     0.972673     0.846473     0.276738
   si1_1   Si     0.983829     0.816380     0.266812
   si1_1   Si     0.998240     0.819189     0.236596
   si1_1   Si     0.998459     0.867925     0.278580
   si1_1   Si     0.950142     0.857921     0.254607
   si1_1   Si     0.964552     0.860730     0.224391
   si1_1   Si     0.964772     0.909466     0.266375
   si1_1   Si     0.979182     0.912275     0.236160
   si1_1   Si     0.990338     0.882182     0.226233
   si1_1   Si     0.956650     0.923723     0.214028
   si1_1   Si     0.971061     0.926532     0.183812
   si1_1   Si     0.971281     0.975268     0.225797
   si1_1   Si     0.985691     0.978077     0.195581
   si1_1   Si     0.996847     0.947984     0.185655
   si1_1   Si     0.963159     0.989525     0.173450
   si1_1   Si     0.977570     0.992334     0.143234
   si1_1   Si     0.955961     0.584495     0.294215
   si1_1   Si     0.970592     0.636040     0.305984
   si1_1   Si     0.922274     0.626035     0.282010
   si1_1   Si     0.922493     0.674772     0.323995
   si1_1   Si     0.936904     0.677581     0.293779
   si1_1   Si     0.948060     0.647488     0.283853
   si1_1   Si     0.962470     0.650297     0.253637
   si1_1   Si     0.962690     0.699033     0.295621
   si1_1   Si     0.977100     0.701842     0.265406
   si1_1   Si     0.914372     0.689029     0.271648
   si1_1   Si     0.928783     0.691837     0.241432
   si1_1   Si     0.929002     0.740574     0.283416
   si1_1   Si     0.943413     0.743383     0.253201
   si1_1   Si     0.954569     0.713290     0.243274
   si1_1   Si     0.968979     0.716099     0.213059
   si1_1   Si     0.969199     0.764835     0.255043
   si1_1   Si     0.983609     0.767644     0.224827
   si1_1   Si     0.920881     0.754831     0.231069
   si1_1   Si     0.935292     0.757639     0.200854
   si1_1   Si     0.935511     0.806376     0.242838
   si1_1   Si     0.949922     0.809184     0.212622
   si1_1   Si     0.961078     0.779092     0.202696
   si1_1   Si     0.975488     0.781901     0.172480
   si1_1   Si     0.975708     0.830637     0.214464
   si1_1   Si     0.990118     0.833446     0.184249
   si1_1   Si     0.927390     0.820633     0.190491
   si1_1   Si     0.941801     0.823441     0.160275
   si1_1   Si     0.942020     0.872178     0.202260
   si1_1   Si     0.956431     0.874986     0.172044
   si1_1   Si     0.967587     0.844894     0.162117
   si1_1   Si     0.981997     0.847703     0.131902
   si1_1   Si     0.982217     0.896439     0.173886
   si1_1   Si     0.996627     0.899248     0.143670
   si1_1   Si     0.933899     0.886435     0.149912
   si1_1   Si     0.948310     0.889243     0.119697
   si1_1   Si     0.948529     0.937980     0.161681
   si1_1   Si     0.962940     0.940788     0.131465
   si1_1   Si     0.974096     0.910696     0.121539
   si1_1   Si     0.988506     0.913505     0.091323
   si1_1   Si     0.988726     0.962241     0.133308
   si1_1   Si     0.940408     0.952237     0.109334
   si1_1   Si     0.933430     0.595943     0.272084
   si1_1   Si     0.947840     0.598752     0.241868
   si1_1   Si     0.899522     0.588747     0.217895
   si1_1   Si     0.899742     0.637484     0.259879
   si1_1   Si     0.914152     0.640292     0.229663
   si1_1   Si     0.925308     0.610200     0.219737
   si1_1   Si     0.939719     0.613009     0.189521
   si1_1   Si     0.939939     0.661745     0.231506
   si1_1   Si     0.954349     0.664554     0.201290
   si1_1   Si     0.891621     0.651741     0.207532
   si1_1   Si     0.906031     0.654549     0.177316
   si1_1   Si     0.906251     0.703286     0.219301
   si1_1   Si     0.920661     0.706094     0.189085
   si1_1   Si     0.931817     0.676002     0.179158
   si1_1   Si     0.946228     0.678811     0.148943
   si1_1   Si     0.946448     0.727547     0.190927
   si1_1   Si     0.960858     0.730356     0.160711
   si1_1   Si     0.898130     0.717543     0.166953
   si1_1   Si     0.912540     0.720351     0.136738
   si1_1   Si     0.912760     0.769088     0.178722
   si1_1   Si     0.927170     0.771896     0.148506
   si1_1   Si     0.938326     0.741804     0.138580
   si1_1   Si     0.952737     0.744613     0.108364
   si1_1   Si     0.952957     0.793349     0.150349
   si1_1   Si     0.967367     0.796158     0.120133
   si1_1   Si     0.904639     0.783345     0.126375
   si1_1   Si     0.919049     0.786153     0.096159
   si1_1   Si     0.919269     0.834890     0.138144
   si1_1   Si     0.933679     0.837698     0.107928
   si1_1   Si     0.944835     0.807606     0.098001
   si1_1   Si     0.959246     0.810415     0.067786
   si1_1   Si     0.959466     0.859151     0.109770
   si1_1   Si     0.973876     0.861960     0.079554
   si1_1   Si     0.911148     0.849147     0.085796
   si1_1   Si     0.925558     0.851955     0.055581
   si1_1   Si     0.925778     0.900692     0.097565
   si1_1   Si     0.940188     0.903500     0.067349
   si1_1   Si     0.951344     0.873408     0.057423
   si1_1   Si     0.965755     0.876217     0.027207
   si1_1   Si     0.965974     0.924953     0.069192
   si1_1   Si     0.925089     0.561464     0.177752
   si1_1   Si     0.876771     0.551459     0.153779
   si1_1   Si     0.876991     0.600196     0.195763
   si1_1   Si     0.891401     0.603004     0.165547
   si1_1   Si     0.902557     0.572912     0.155621
   si1_1   Si     0.916967     0.575721     0.125405
   si1_1   Si     0.917187     0.624457     0.167390
   si1_1   Si     0.931598     0.627266     0.137174
   si1_1   Si     0.868869     0.614452     0.143416
   si1_1   Si     0.883280     0.617261     0.113200
   si1_1   Si     0.883500     0.665998     0.155185
   si1_1   Si     0.897910     0.668806     0.124969
   si1_1   Si     0.909066     0.638714     0.115042
   si1_1   Si     0.923476     0.641522     0.084827
   si1_1   Si     0.923696     0.690259     0.126811
   si1_1   Si     0.938107     0.693068     0.096595
   si1_1   Si     0.875378     0.680254     0.102838
   si1_1   Si     0.889789     0.683063     0.072622
   si1_1   Si     0.890009     0.731800     0.114606
   si1_1   Si     0.904419     0.734608     0.084391
   si1_1   Si     0.915575     0.704516     0.074464
   si1_1   Si     0.929985     0.707324     0.044248
   si1_1   Si     0.930205     0.756061     0.086233
   si1_1   Si     0.944616     0.758870     0.056017
   si1_1   Si     0.881887     0.746056     0.062259
   si1_1   Si     0.896298     0.748865     0.032043
   si1_1   Si     0.896518     0.797601     0.074028
   si1_1   Si     0.910928     0.800410     0.043812
   si1_1   Si     0.922084     0.770318     0.033886
   si1_1   Si     0.936494     0.773126     0.003670
   si1_1   Si     0.936714     0.821863     0.045654
   si1_1   Si     0.951125     0.824672     0.015439
   si1_1   Si     0.888396     0.811858     0.021681
   si1_1   Si     0.903026     0.863403     0.033449
   si1_1   Si     0.854239     0.562907     0.131647
   si1_1   Si     0.868650     0.565716     0.101432
   si1_1   Si     0.894436     0.587169     0.103274
   si1_1   Si     0.908846     0.589977     0.073058
   si1_1   Si     0.846118     0.577164     0.079300
   si1_1   Si     0.860528     0.579973     0.049084
   si1_1   Si     0.860748     0.628709     0.091069
   si1_1   Si     0.875159     0.631518     0.060853
   si1_1   Si     0.886315     0.601426     0.050927
   si1_1   Si     0.900725     0.604234     0.020711
   si1_1   Si     0.900945     0.652971     0.062695
   si1_1   Si     0.915355     0.655779     0.032480
   si1_1   Si     0.852627     0.642966     0.038722
   si1_1   Si     0.867037     0.645775     0.008506
   si1_1   Si     0.867257     0.694511     0.050490
   si1_1   Si     0.881668     0.697320     0.020275
   si1_1   Si     0.892824     0.667228     0.010348
   si1_1   Si     0.907454     0.718773     0.022117
   si1_1   Si     0.873766     0.760313     0.009912
   si1_1   Si     0.871684     0.549881     0.039158
   si1_1   Si     0.823367     0.539876     0.015184
   si1_1   Si     0.837997     0.591421     0.026953
   si1_1   Si     0.981747     0.605948     0.296058
   si1_1   Si     0.996158     0.608756     0.265842
   si1_1   Si     0.996378     0.657493     0.307826
   si1_1   Si     0.988256     0.671750     0.255479
   si1_1   Si     0.994765     0.737552     0.214901
   si1_1   Si     0.973407     0.571468     0.201726
   si1_1   Si     0.973626     0.620205     0.243710
   si1_1   Si     0.988037     0.623013     0.213495
   si1_1   Si     0.999193     0.592921     0.203568
   si1_1   Si     0.965505     0.634461     0.191363
   si1_1   Si     0.979916     0.637270     0.161148
   si1_1   Si     0.980135     0.686006     0.203132
   si1_1   Si     0.994546     0.688815     0.172916
   si1_1   Si     0.972014     0.700263     0.150785
   si1_1   Si     0.986424     0.703072     0.120569
   si1_1   Si     0.986644     0.751808     0.162554
   si1_1   Si     0.978523     0.766065     0.110206
   si1_1   Si     0.992933     0.768874     0.079991
   si1_1   Si     0.993153     0.817610     0.121975
   si1_1   Si     0.985032     0.831867     0.069628
   si1_1   Si     0.999442     0.834676     0.039412
   si1_1   Si     0.999662     0.883412     0.081397
   si1_1   Si     0.991541     0.897669     0.029049
   si1_1   Si     0.950875     0.582916     0.179595
   si1_1   Si     0.965285     0.585725     0.149379
   si1_1   Si     0.991071     0.607178     0.151221
   si1_1   Si     0.942754     0.597173     0.127247
   si1_1   Si     0.957164     0.599982     0.097032
   si1_1   Si     0.957384     0.648718     0.139016
   si1_1   Si     0.971794     0.651527     0.108800
   si1_1   Si     0.982950     0.621435     0.098874
   si1_1   Si     0.997361     0.624243     0.068658
   si1_1   Si     0.997580     0.672980     0.110643
   si1_1   Si     0.949263     0.662975     0.086669
   si1_1   Si     0.963673     0.665784     0.056453
   si1_1   Si     0.963893     0.714520     0.098438
   si1_1   Si     0.978303     0.717329     0.068222
   si1_1   Si     0.989459     0.687237     0.058295
   si1_1   Si     0.955772     0.728777     0.046091
   si1_1   Si     0.970182     0.731586     0.015875
   si1_1   Si     0.970402     0.780322     0.057859
   si1_1   Si     0.984812     0.783131     0.027643
   si1_1   Si     0.995968     0.753039     0.017717
   si1_1   Si     0.962281     0.794579     0.005512
   si1_1   Si     0.976911     0.846124     0.017281
   si1_1   Si     0.968320     0.569890     0.087105
   si1_1   Si     0.982731     0.572698     0.056890
   si1_1   Si     0.920002     0.559885     0.063132
   si1_1   Si     0.934413     0.562694     0.032916
   si1_1   Si     0.934632     0.611430     0.074900
   si1_1   Si     0.949043     0.614239     0.044685
   si1_1   Si     0.960199     0.584146     0.034758
   si1_1   Si     0.974829     0.635692     0.046527
   si1_1   Si     0.926511     0.625687     0.022553
   si1_1   Si     0.941141     0.677232     0.034322
   si1_1   Si     0.596379     0.825064     0.419279
   si1_1   Si     0.645038     0.842767     0.401160
   si1_1   Si     0.571963     0.763443     0.459598
   si1_1   Si     0.605905     0.793312     0.413840
   si1_1   Si     0.620623     0.781145     0.441479
   si1_1   Si     0.603224     0.730749     0.428560
   si1_1   Si     0.532830     0.713987     0.472278
   si1_1   Si     0.547548     0.701821     0.499916
   si1_1   Si     0.581490     0.731690     0.454159
   si1_1   Si     0.596208     0.719524     0.481797
   si1_1   Si     0.578809     0.669127     0.468879
   si1_1   Si     0.605734     0.687772     0.476358
   si1_1   Si     0.620452     0.675606     0.503997
   si1_1   Si     0.498889     0.684118     0.518036
   si1_1   Si     0.530149     0.651425     0.486998
   si1_1   Si     0.508415     0.652366     0.512596
   si1_1   Si     0.523133     0.640200     0.540235
   si1_1   Si     0.557075     0.670069     0.494477
   si1_1   Si     0.571793     0.657903     0.522116
   si1_1   Si     0.539676     0.619672     0.481559
   si1_1   Si     0.554394     0.607506     0.509197
   si1_1   Si     0.581319     0.626151     0.516677
   si1_1   Si     0.596037     0.613984     0.544316
   si1_1   Si     0.474474     0.622497     0.558354
   si1_1   Si     0.505734     0.589803     0.527317
   si1_1   Si     0.484000     0.590745     0.552915
   si1_1   Si     0.498718     0.578579     0.580554
   si1_1   Si     0.532660     0.608448     0.534796
   si1_1   Si     0.547378     0.596282     0.562435
   si1_1   Si     0.606933     0.969775     0.422917
   si1_1   Si     0.616459     0.938023     0.417478
   si1_1   Si     0.631177     0.925857     0.445116
   si1_1   Si     0.679836     0.943560     0.426997
   si1_1   Si     0.647719     0.905329     0.386440
   si1_1   Si     0.662437     0.893163     0.414078
   si1_1   Si     0.689363     0.911807     0.421558
   si1_1   Si     0.704081     0.899641     0.449197
   si1_1   Si     0.533858     0.890451     0.481355
   si1_1   Si     0.582518     0.908154     0.463236
   si1_1   Si     0.565118     0.857758     0.450317
   si1_1   Si     0.613778     0.875460     0.432198
   si1_1   Si     0.592044     0.876402     0.457796
   si1_1   Si     0.606762     0.864236     0.485435
   si1_1   Si     0.640703     0.894105     0.439677
   si1_1   Si     0.655421     0.881938     0.467316
   si1_1   Si     0.623304     0.843708     0.426758
   si1_1   Si     0.638022     0.831542     0.454397
   si1_1   Si     0.671964     0.861411     0.408639
   si1_1   Si     0.686682     0.849245     0.436278
   si1_1   Si     0.664948     0.850186     0.461877
   si1_1   Si     0.679666     0.838020     0.489515
   si1_1   Si     0.713607     0.867889     0.443757
   si1_1   Si     0.728325     0.855723     0.471396
   si1_1   Si     0.509443     0.828830     0.521674
   si1_1   Si     0.543384     0.858699     0.475916
   si1_1   Si     0.558102     0.846533     0.503554
   si1_1   Si     0.540703     0.796136     0.490636
   si1_1   Si     0.574645     0.826005     0.444878
   si1_1   Si     0.589363     0.813839     0.472516
   si1_1   Si     0.567629     0.814781     0.498115
   si1_1   Si     0.582347     0.802614     0.525754
   si1_1   Si     0.616288     0.832483     0.479996
   si1_1   Si     0.631006     0.820317     0.507635
   si1_1   Si     0.598889     0.782087     0.467077
   si1_1   Si     0.613607     0.769921     0.494716
   si1_1   Si     0.647549     0.799790     0.448958
   si1_1   Si     0.662267     0.787623     0.476597
   si1_1   Si     0.640533     0.788565     0.502195
   si1_1   Si     0.655251     0.776399     0.529834
   si1_1   Si     0.689192     0.806268     0.484076
   si1_1   Si     0.703910     0.794102     0.511715
   si1_1   Si     0.460784     0.811127     0.539793
   si1_1   Si     0.492044     0.778433     0.508755
   si1_1   Si     0.470310     0.779375     0.534354
   si1_1   Si     0.485028     0.767209     0.561992
   si1_1   Si     0.518969     0.797078     0.516234
   si1_1   Si     0.533687     0.784912     0.543873
   si1_1   Si     0.501570     0.746681     0.503316
   si1_1   Si     0.516288     0.734515     0.530954
   si1_1   Si     0.550230     0.764384     0.485196
   si1_1   Si     0.564948     0.752218     0.512835
   si1_1   Si     0.543214     0.753159     0.538434
   si1_1   Si     0.557932     0.740993     0.566073
   si1_1   Si     0.591873     0.770862     0.520315
   si1_1   Si     0.606591     0.758696     0.547953
   si1_1   Si     0.574474     0.720466     0.507396
   si1_1   Si     0.589192     0.708299     0.535035
   si1_1   Si     0.623133     0.738168     0.489277
   si1_1   Si     0.637851     0.726002     0.516915
   si1_1   Si     0.616117     0.726944     0.542514
   si1_1   Si     0.630835     0.714777     0.570153
   si1_1   Si     0.664777     0.744646     0.524395
   si1_1   Si     0.679495     0.732480     0.552034
   si1_1   Si     0.647378     0.694250     0.511476
   si1_1   Si     0.662096     0.682084     0.539115
   si1_1   Si     0.689021     0.700728     0.546594
   si1_1   Si     0.703739     0.688562     0.574233
   si1_1   Si     0.387709     0.731803     0.598231
   si1_1   Si     0.436368     0.749506     0.580112
   si1_1   Si     0.467629     0.716812     0.549074
   si1_1   Si     0.445895     0.717754     0.574672
   si1_1   Si     0.460613     0.705588     0.602311
   si1_1   Si     0.494554     0.735457     0.556553
   si1_1   Si     0.509272     0.723290     0.584192
   si1_1   Si     0.477155     0.685060     0.543634
   si1_1   Si     0.491873     0.672894     0.571273
   si1_1   Si     0.525814     0.702763     0.525515
   si1_1   Si     0.540532     0.690597     0.553154
   si1_1   Si     0.518799     0.691538     0.578753
   si1_1   Si     0.533517     0.679372     0.606391
   si1_1   Si     0.567458     0.709241     0.560633
   si1_1   Si     0.582176     0.697075     0.588272
   si1_1   Si     0.550059     0.658844     0.547715
   si1_1   Si     0.564777     0.646678     0.575353
   si1_1   Si     0.598718     0.676547     0.529595
   si1_1   Si     0.613436     0.664381     0.557234
   si1_1   Si     0.591702     0.665322     0.582833
   si1_1   Si     0.606420     0.653156     0.610472
   si1_1   Si     0.640362     0.683025     0.564714
   si1_1   Si     0.655080     0.670859     0.592352
   si1_1   Si     0.622963     0.632629     0.551795
   si1_1   Si     0.637681     0.620462     0.579434
   si1_1   Si     0.664606     0.639107     0.586913
   si1_1   Si     0.679324     0.626941     0.614552
   si1_1   Si     0.397235     0.700051     0.592792
   si1_1   Si     0.411953     0.687885     0.620430
   si1_1   Si     0.428496     0.667357     0.561754
   si1_1   Si     0.443214     0.655191     0.589392
   si1_1   Si     0.421480     0.656133     0.614991
   si1_1   Si     0.436198     0.643966     0.642630
   si1_1   Si     0.470139     0.673835     0.596872
   si1_1   Si     0.484857     0.661669     0.624511
   si1_1   Si     0.452740     0.623439     0.583953
   si1_1   Si     0.467458     0.611272     0.611592
   si1_1   Si     0.501399     0.641142     0.565834
   si1_1   Si     0.516117     0.628975     0.593473
   si1_1   Si     0.494383     0.629917     0.619071
   si1_1   Si     0.509101     0.617751     0.646710
   si1_1   Si     0.543043     0.647620     0.600952
   si1_1   Si     0.557761     0.635453     0.628591
   si1_1   Si     0.525644     0.597223     0.588033
   si1_1   Si     0.540362     0.585057     0.615672
   si1_1   Si     0.574303     0.614926     0.569914
   si1_1   Si     0.589021     0.602760     0.597553
   si1_1   Si     0.567287     0.603701     0.623152
   si1_1   Si     0.582005     0.591535     0.650790
   si1_1   Si     0.615947     0.621404     0.605032
   si1_1   Si     0.630665     0.609238     0.632671
   si1_1   Si     0.476984     0.579520     0.606153
   si1_1   Si     0.518628     0.585998     0.641271
   si1_1   Si     0.533346     0.573832     0.668910
   si1_1   Si     0.527013     0.984766     0.472074
   si1_1   Si     0.568656     0.991244     0.507192
   si1_1   Si     0.585199     0.970717     0.448516
   si1_1   Si     0.599917     0.958551     0.476154
   si1_1   Si     0.648576     0.976253     0.458035
   si1_1   Si     0.626842     0.977195     0.483634
   si1_1   Si     0.641560     0.965029     0.511272
   si1_1   Si     0.675502     0.994898     0.465514
   si1_1   Si     0.690220     0.982732     0.493153
   si1_1   Si     0.658103     0.944501     0.452596
   si1_1   Si     0.672821     0.932335     0.480235
   si1_1   Si     0.706762     0.962204     0.434477
   si1_1   Si     0.721480     0.950038     0.462115
   si1_1   Si     0.699746     0.950979     0.487714
   si1_1   Si     0.714464     0.938813     0.515353
   si1_1   Si     0.748406     0.968682     0.469595
   si1_1   Si     0.763124     0.956516     0.497234
   si1_1   Si     0.731006     0.918286     0.456676
   si1_1   Si     0.745724     0.906119     0.484315
   si1_1   Si     0.772650     0.924764     0.491794
   si1_1   Si     0.787368     0.912597     0.519433
   si1_1   Si     0.471338     0.955839     0.543431
   si1_1   Si     0.505279     0.985708     0.497673
   si1_1   Si     0.519997     0.973542     0.525311
   si1_1   Si     0.502598     0.923145     0.512393
   si1_1   Si     0.536539     0.953014     0.466635
   si1_1   Si     0.551257     0.940848     0.494274
   si1_1   Si     0.529523     0.941789     0.519872
   si1_1   Si     0.544241     0.929623     0.547511
   si1_1   Si     0.578183     0.959492     0.501753
   si1_1   Si     0.592901     0.947326     0.529392
   si1_1   Si     0.560784     0.909096     0.488834
   si1_1   Si     0.575502     0.896929     0.516473
   si1_1   Si     0.609443     0.926798     0.470715
   si1_1   Si     0.624161     0.914632     0.498354
   si1_1   Si     0.602427     0.915574     0.523952
   si1_1   Si     0.617145     0.903408     0.551591
   si1_1   Si     0.651087     0.933277     0.505833
   si1_1   Si     0.665805     0.921110     0.533472
   si1_1   Si     0.633687     0.882880     0.492915
   si1_1   Si     0.648405     0.870714     0.520553
   si1_1   Si     0.682347     0.900583     0.474795
   si1_1   Si     0.697065     0.888417     0.502434
   si1_1   Si     0.675331     0.889358     0.528033
   si1_1   Si     0.690049     0.877192     0.555671
   si1_1   Si     0.723990     0.907061     0.509913
   si1_1   Si     0.738708     0.894895     0.537552
   si1_1   Si     0.706591     0.856664     0.496995
   si1_1   Si     0.721309     0.844498     0.524634
   si1_1   Si     0.748235     0.863142     0.532113
   si1_1   Si     0.762953     0.850976     0.559752
   si1_1   Si     0.432204     0.906384     0.556111
   si1_1   Si     0.446922     0.894218     0.583749
   si1_1   Si     0.480864     0.924087     0.537991
   si1_1   Si     0.495582     0.911920     0.565630
   si1_1   Si     0.478183     0.861524     0.552711
   si1_1   Si     0.512124     0.891393     0.506953
   si1_1   Si     0.526842     0.879227     0.534592
   si1_1   Si     0.505108     0.880168     0.560191
   si1_1   Si     0.519826     0.868002     0.587830
   si1_1   Si     0.553768     0.897871     0.542072
   si1_1   Si     0.568486     0.885705     0.569710
   si1_1   Si     0.536369     0.847474     0.529153
   si1_1   Si     0.551087     0.835308     0.556792
   si1_1   Si     0.585028     0.865177     0.511034
   si1_1   Si     0.599746     0.853011     0.538673
   si1_1   Si     0.578012     0.853953     0.564271
   si1_1   Si     0.592730     0.841786     0.591910
   si1_1   Si     0.626672     0.871655     0.546152
   si1_1   Si     0.641390     0.859489     0.573791
   si1_1   Si     0.609272     0.821259     0.533233
   si1_1   Si     0.623990     0.809092     0.560872
   si1_1   Si     0.657932     0.838962     0.515114
   si1_1   Si     0.672650     0.826795     0.542753
   si1_1   Si     0.650916     0.827737     0.568351
   si1_1   Si     0.665634     0.815571     0.595990
   si1_1   Si     0.699575     0.845440     0.550232
   si1_1   Si     0.714293     0.833273     0.577871
   si1_1   Si     0.682176     0.795043     0.537314
   si1_1   Si     0.696894     0.782877     0.564952
   si1_1   Si     0.730836     0.812746     0.519194
   si1_1   Si     0.745554     0.800580     0.546833
   si1_1   Si     0.723820     0.801521     0.572432
   si1_1   Si     0.738538     0.789355     0.600071
   si1_1   Si     0.772479     0.819224     0.554312
   si1_1   Si     0.787197     0.807058     0.581951
   si1_1   Si     0.398263     0.876515     0.601869
   si1_1   Si     0.429523     0.843821     0.570831
   si1_1   Si     0.407789     0.844763     0.596429
   si1_1   Si     0.422507     0.832596     0.624068
   si1_1   Si     0.456449     0.862465     0.578310
   si1_1   Si     0.471167     0.850299     0.605949
   si1_1   Si     0.439050     0.812069     0.565391
   si1_1   Si     0.453768     0.799903     0.593030
   si1_1   Si     0.487709     0.829772     0.547272
   si1_1   Si     0.502427     0.817605     0.574911
   si1_1   Si     0.480693     0.818547     0.600510
   si1_1   Si     0.495411     0.806381     0.628148
   si1_1   Si     0.529353     0.836250     0.582390
   si1_1   Si     0.544071     0.824083     0.610029
   si1_1   Si     0.511953     0.785853     0.569472
   si1_1   Si     0.526671     0.773687     0.597110
   si1_1   Si     0.560613     0.803556     0.551352
   si1_1   Si     0.575331     0.791390     0.578991
   si1_1   Si     0.553597     0.792331     0.604590
   si1_1   Si     0.568315     0.780165     0.632229
   si1_1   Si     0.602256     0.810034     0.586471
   si1_1   Si     0.616974     0.797868     0.614109
   si1_1   Si     0.584857     0.759637     0.573552
   si1_1   Si     0.599575     0.747471     0.601191
   si1_1   Si     0.633517     0.777340     0.555433
   si1_1   Si     0.648235     0.765174     0.583072
   si1_1   Si     0.626501     0.766116     0.608670
   si1_1   Si     0.641219     0.753949     0.636309
   si1_1   Si     0.675160     0.783818     0.590551
   si1_1   Si     0.689878     0.771652     0.618190
   si1_1   Si     0.657761     0.733422     0.577632
   si1_1   Si     0.672479     0.721256     0.605271
   si1_1   Si     0.706421     0.751125     0.559513
   si1_1   Si     0.721139     0.738958     0.587152
   si1_1   Si     0.699405     0.739900     0.612750
   si1_1   Si     0.714123     0.727734     0.640389
   si1_1   Si     0.748064     0.757603     0.594631
   si1_1   Si     0.762782     0.745436     0.622270
   si1_1   Si     0.325188     0.797191     0.660307
   si1_1   Si     0.373848     0.814894     0.642187
   si1_1   Si     0.356449     0.764497     0.629269
   si1_1   Si     0.405108     0.782200     0.611149
   si1_1   Si     0.383374     0.783141     0.636748
   si1_1   Si     0.398092     0.770975     0.664387
   si1_1   Si     0.432034     0.800844     0.618629
   si1_1   Si     0.446752     0.788678     0.646268
   si1_1   Si     0.414634     0.750448     0.605710
   si1_1   Si     0.429352     0.738281     0.633349
   si1_1   Si     0.463294     0.768150     0.587591
   si1_1   Si     0.478012     0.755984     0.615230
   si1_1   Si     0.456278     0.756926     0.640828
   si1_1   Si     0.470996     0.744759     0.668467
   si1_1   Si     0.504938     0.774628     0.622709
   si1_1   Si     0.519656     0.762462     0.650348
   si1_1   Si     0.487538     0.724232     0.609790
   si1_1   Si     0.502256     0.712066     0.637429
   si1_1   Si     0.536198     0.741935     0.591671
   si1_1   Si     0.550916     0.729768     0.619310
   si1_1   Si     0.529182     0.730710     0.644909
   si1_1   Si     0.543900     0.718544     0.672547
   si1_1   Si     0.577841     0.748413     0.626789
   si1_1   Si     0.592559     0.736247     0.654428
   si1_1   Si     0.560442     0.698016     0.613871
   si1_1   Si     0.575160     0.685850     0.641510
   si1_1   Si     0.609102     0.715719     0.595752
   si1_1   Si     0.623820     0.703553     0.623390
   si1_1   Si     0.602086     0.704494     0.648989
   si1_1   Si     0.616804     0.692328     0.676628
   si1_1   Si     0.650745     0.722197     0.630870
   si1_1   Si     0.665463     0.710031     0.658508
   si1_1   Si     0.633346     0.671801     0.617951
   si1_1   Si     0.648064     0.659634     0.645590
   si1_1   Si     0.682005     0.689503     0.599832
   si1_1   Si     0.696723     0.677337     0.627471
   si1_1   Si     0.674990     0.678279     0.653069
   si1_1   Si     0.689708     0.666112     0.680708
   si1_1   Si     0.723649     0.695981     0.634950
   si1_1   Si     0.738367     0.683815     0.662589
   si1_1   Si     0.706250     0.645585     0.622031
   si1_1   Si     0.720968     0.633419     0.649670
   si1_1   Si     0.747893     0.652063     0.657150
   si1_1   Si     0.762611     0.639897     0.684788
   si1_1   Si     0.334715     0.765439     0.654867
   si1_1   Si     0.349433     0.753272     0.682506
   si1_1   Si     0.365975     0.732745     0.623829
   si1_1   Si     0.380693     0.720579     0.651468
   si1_1   Si     0.358959     0.721520     0.677067
   si1_1   Si     0.373677     0.709354     0.704706
   si1_1   Si     0.407619     0.739223     0.658948
   si1_1   Si     0.422337     0.727057     0.686586
   si1_1   Si     0.390219     0.688826     0.646029
   si1_1   Si     0.404937     0.676660     0.673668
   si1_1   Si     0.438879     0.706529     0.627910
   si1_1   Si     0.453597     0.694363     0.655548
   si1_1   Si     0.431863     0.695304     0.681147
   si1_1   Si     0.446581     0.683138     0.708786
   si1_1   Si     0.480522     0.713007     0.663028
   si1_1   Si     0.495240     0.700841     0.690667
   si1_1   Si     0.463123     0.662611     0.650109
   si1_1   Si     0.477841     0.650444     0.677748
   si1_1   Si     0.511783     0.680313     0.631990
   si1_1   Si     0.526501     0.668147     0.659629
   si1_1   Si     0.504767     0.669089     0.685227
   si1_1   Si     0.519485     0.656922     0.712866
   si1_1   Si     0.553426     0.686792     0.667108
   si1_1   Si     0.568144     0.674625     0.694747
   si1_1   Si     0.536027     0.636395     0.654189
   si1_1   Si     0.550745     0.624229     0.681828
   si1_1   Si     0.584686     0.654098     0.636070
   si1_1   Si     0.599404     0.641931     0.663709
   si1_1   Si     0.577671     0.642873     0.689308
   si1_1   Si     0.592389     0.630707     0.716946
   si1_1   Si     0.626330     0.660576     0.671188
   si1_1   Si     0.641048     0.648410     0.698827
   si1_1   Si     0.608931     0.610179     0.658270
   si1_1   Si     0.623649     0.598013     0.685909
   si1_1   Si     0.657590     0.627882     0.640151
   si1_1   Si     0.672308     0.615716     0.667789
   si1_1   Si     0.650574     0.616657     0.693388
   si1_1   Si     0.665292     0.604491     0.721027
   si1_1   Si     0.699234     0.634360     0.675269
   si1_1   Si     0.713952     0.622194     0.702908
   si1_1   Si     0.456107     0.651386     0.703347
   si1_1   Si     0.470825     0.639220     0.730985
   si1_1   Si     0.487368     0.618692     0.672309
   si1_1   Si     0.502086     0.606526     0.699947
   si1_1   Si     0.529011     0.625170     0.707427
   si1_1   Si     0.543729     0.613004     0.735066
   si1_1   Si     0.560271     0.592476     0.676389
   si1_1   Si     0.574989     0.580310     0.704028
   si1_1   Si     0.553255     0.581252     0.729626
   si1_1   Si     0.567973     0.569086     0.757265
   si1_1   Si     0.601915     0.598955     0.711507
   si1_1   Si     0.616633     0.586788     0.739146
   si1_1   Si     0.610300     0.997723     0.542310
   si1_1   Si     0.668486     0.983673     0.518752
   si1_1   Si     0.683204     0.971507     0.546391
   si1_1   Si     0.731863     0.989210     0.528271
   si1_1   Si     0.710129     0.990151     0.553870
   si1_1   Si     0.724847     0.977985     0.581509
   si1_1   Si     0.741390     0.957457     0.522832
   si1_1   Si     0.756108     0.945291     0.550471
   si1_1   Si     0.783033     0.963936     0.557950
   si1_1   Si     0.440077     0.988533     0.574469
   si1_1   Si     0.481721     0.995011     0.609587
   si1_1   Si     0.498263     0.974483     0.550910
   si1_1   Si     0.512981     0.962317     0.578549
   si1_1   Si     0.546923     0.992186     0.532791
   si1_1   Si     0.561641     0.980020     0.560430
   si1_1   Si     0.539907     0.980961     0.586028
   si1_1   Si     0.554625     0.968795     0.613667
   si1_1   Si     0.588566     0.998664     0.567909
   si1_1   Si     0.603284     0.986498     0.595548
   si1_1   Si     0.571167     0.948268     0.554990
   si1_1   Si     0.585885     0.936101     0.582629
   si1_1   Si     0.619826     0.965970     0.536871
   si1_1   Si     0.634544     0.953804     0.564510
   si1_1   Si     0.612810     0.954746     0.590109
   si1_1   Si     0.627528     0.942579     0.617747
   si1_1   Si     0.661470     0.972448     0.571989
   si1_1   Si     0.676188     0.960282     0.599628
   si1_1   Si     0.644071     0.922052     0.559071
   si1_1   Si     0.658789     0.909886     0.586709
   si1_1   Si     0.692730     0.939755     0.540951
   si1_1   Si     0.707448     0.927588     0.568590
   si1_1   Si     0.685714     0.928530     0.594189
   si1_1   Si     0.700432     0.916364     0.621828
   si1_1   Si     0.734374     0.946233     0.576070
   si1_1   Si     0.749092     0.934067     0.603708
   si1_1   Si     0.716975     0.895836     0.563151
   si1_1   Si     0.731693     0.883670     0.590790
   si1_1   Si     0.765634     0.913539     0.545032
   si1_1   Si     0.780352     0.901373     0.572670
   si1_1   Si     0.758618     0.902314     0.598269
   si1_1   Si     0.773336     0.890148     0.625908
   si1_1   Si     0.807278     0.920017     0.580150
   si1_1   Si     0.821996     0.907851     0.607789
   si1_1   Si     0.789878     0.869621     0.567231
   si1_1   Si     0.804596     0.857454     0.594870
   si1_1   Si     0.831522     0.876099     0.602349
   si1_1   Si     0.846240     0.863932     0.629988
   si1_1   Si     0.391418     0.970830     0.592588
   si1_1   Si     0.369684     0.971771     0.618186
   si1_1   Si     0.384402     0.959605     0.645825
   si1_1   Si     0.418343     0.989474     0.600067
   si1_1   Si     0.433061     0.977308     0.627706
   si1_1   Si     0.400944     0.939078     0.587149
   si1_1   Si     0.415662     0.926911     0.614787
   si1_1   Si     0.449604     0.956780     0.569029
   si1_1   Si     0.464322     0.944614     0.596668
   si1_1   Si     0.442588     0.945556     0.622267
   si1_1   Si     0.457306     0.933390     0.649905
   si1_1   Si     0.491247     0.963259     0.604147
   si1_1   Si     0.505965     0.951092     0.631786
   si1_1   Si     0.473848     0.912862     0.591229
   si1_1   Si     0.488566     0.900696     0.618868
   si1_1   Si     0.522507     0.930565     0.573110
   si1_1   Si     0.537225     0.918399     0.600748
   si1_1   Si     0.515492     0.919340     0.626347
   si1_1   Si     0.530210     0.907174     0.653986
   si1_1   Si     0.564151     0.937043     0.608228
   si1_1   Si     0.578869     0.924877     0.635867
   si1_1   Si     0.546752     0.886646     0.595309
   si1_1   Si     0.561470     0.874480     0.622948
   si1_1   Si     0.595411     0.904349     0.577190
   si1_1   Si     0.610129     0.892183     0.604829
   si1_1   Si     0.588395     0.893124     0.630427
   si1_1   Si     0.603113     0.880958     0.658066
   si1_1   Si     0.637055     0.910827     0.612308
   si1_1   Si     0.651773     0.898661     0.639947
   si1_1   Si     0.619656     0.860431     0.599389
   si1_1   Si     0.634374     0.848264     0.627028
   si1_1   Si     0.668315     0.878133     0.581270
   si1_1   Si     0.683033     0.865967     0.608909
   si1_1   Si     0.661299     0.866909     0.634508
   si1_1   Si     0.676017     0.854742     0.662146
   si1_1   Si     0.709959     0.884612     0.616388
   si1_1   Si     0.724677     0.872445     0.644027
   si1_1   Si     0.692559     0.834215     0.603470
   si1_1   Si     0.707277     0.822049     0.631108
   si1_1   Si     0.741219     0.851918     0.585350
   si1_1   Si     0.755937     0.839751     0.612989
   si1_1   Si     0.734203     0.840693     0.638588
   si1_1   Si     0.748921     0.828527     0.666227
   si1_1   Si     0.782862     0.858396     0.620469
   si1_1   Si     0.797581     0.846230     0.648107
   si1_1   Si     0.765463     0.807999     0.607550
   si1_1   Si     0.780181     0.795833     0.635189
   si1_1   Si     0.814123     0.825702     0.589431
   si1_1   Si     0.828841     0.813536     0.617069
   si1_1   Si     0.807107     0.814477     0.642668
   si1_1   Si     0.821825     0.802311     0.670307
   si1_1   Si     0.335742     0.941902     0.663944
   si1_1   Si     0.367003     0.909209     0.632907
   si1_1   Si     0.345269     0.910150     0.658505
   si1_1   Si     0.359987     0.897984     0.686144
   si1_1   Si     0.393928     0.927853     0.640386
   si1_1   Si     0.408646     0.915687     0.668025
   si1_1   Si     0.376529     0.877456     0.627467
   si1_1   Si     0.391247     0.865290     0.655106
   si1_1   Si     0.425189     0.895159     0.609348
   si1_1   Si     0.439907     0.882993     0.636987
   si1_1   Si     0.418173     0.883935     0.662585
   si1_1   Si     0.432891     0.871768     0.690224
   si1_1   Si     0.466832     0.901637     0.644466
   si1_1   Si     0.481550     0.889471     0.672105
   si1_1   Si     0.449433     0.851241     0.631548
   si1_1   Si     0.464151     0.839074     0.659186
   si1_1   Si     0.498092     0.868944     0.613428
   si1_1   Si     0.512810     0.856777     0.641067
   si1_1   Si     0.491076     0.857719     0.666666
   si1_1   Si     0.505794     0.845553     0.694304
   si1_1   Si     0.539736     0.875422     0.648546
   si1_1   Si     0.554454     0.863255     0.676185
   si1_1   Si     0.522337     0.825025     0.635628
   si1_1   Si     0.537055     0.812859     0.663267
   si1_1   Si     0.570996     0.842728     0.617509
   si1_1   Si     0.585714     0.830562     0.645147
   si1_1   Si     0.563980     0.831503     0.670746
   si1_1   Si     0.578698     0.819337     0.698385
   si1_1   Si     0.612640     0.849206     0.652627
   si1_1   Si     0.627358     0.837040     0.680266
   si1_1   Si     0.595241     0.798809     0.639708
   si1_1   Si     0.609959     0.786643     0.667347
   si1_1   Si     0.643900     0.816512     0.621589
   si1_1   Si     0.658618     0.804346     0.649228
   si1_1   Si     0.636884     0.805287     0.674826
   si1_1   Si     0.651602     0.793121     0.702465
   si1_1   Si     0.685544     0.822990     0.656707
   si1_1   Si     0.700262     0.810824     0.684346
   si1_1   Si     0.668144     0.772594     0.643788
   si1_1   Si     0.682862     0.760427     0.671427
   si1_1   Si     0.716804     0.790296     0.625669
   si1_1   Si     0.731522     0.778130     0.653308
   si1_1   Si     0.709788     0.779072     0.678907
   si1_1   Si     0.724506     0.766906     0.706545
   si1_1   Si     0.758447     0.796775     0.660787
   si1_1   Si     0.773165     0.784608     0.688426
   si1_1   Si     0.741048     0.746378     0.647869
   si1_1   Si     0.755766     0.734212     0.675507
   si1_1   Si     0.789708     0.764081     0.629749
   si1_1   Si     0.804426     0.751915     0.657388
   si1_1   Si     0.782692     0.752856     0.682987
   si1_1   Si     0.797410     0.740690     0.710626
   si1_1   Si     0.831351     0.770559     0.664868
   si1_1   Si     0.296609     0.892447     0.676624
   si1_1   Si     0.311327     0.880281     0.704263
   si1_1   Si     0.293928     0.829885     0.691344
   si1_1   Si     0.342588     0.847587     0.673225
   si1_1   Si     0.320854     0.848529     0.698824
   si1_1   Si     0.335572     0.836363     0.726463
   si1_1   Si     0.369513     0.866232     0.680705
   si1_1   Si     0.384231     0.854065     0.708343
   si1_1   Si     0.352114     0.815835     0.667786
   si1_1   Si     0.366832     0.803669     0.695425
   si1_1   Si     0.400773     0.833538     0.649667
   si1_1   Si     0.415491     0.821372     0.677306
   si1_1   Si     0.393758     0.822313     0.702904
   si1_1   Si     0.408476     0.810147     0.730543
   si1_1   Si     0.442417     0.840016     0.684785
   si1_1   Si     0.457135     0.827850     0.712424
   si1_1   Si     0.425018     0.789619     0.671866
   si1_1   Si     0.439736     0.777453     0.699505
   si1_1   Si     0.473677     0.807322     0.653747
   si1_1   Si     0.488395     0.795156     0.681386
   si1_1   Si     0.466661     0.796098     0.706984
   si1_1   Si     0.481379     0.783931     0.734623
   si1_1   Si     0.515321     0.813800     0.688865
   si1_1   Si     0.530039     0.801634     0.716504
   si1_1   Si     0.497922     0.763404     0.675947
   si1_1   Si     0.512640     0.751238     0.703585
   si1_1   Si     0.546581     0.781107     0.657827
   si1_1   Si     0.561299     0.768940     0.685466
   si1_1   Si     0.539565     0.769882     0.711065
   si1_1   Si     0.554283     0.757716     0.738704
   si1_1   Si     0.588225     0.787585     0.692946
   si1_1   Si     0.602943     0.775418     0.720584
   si1_1   Si     0.570825     0.737188     0.680027
   si1_1   Si     0.585543     0.725022     0.707666
   si1_1   Si     0.619485     0.754891     0.661908
   si1_1   Si     0.634203     0.742725     0.689546
   si1_1   Si     0.612469     0.743666     0.715145
   si1_1   Si     0.627187     0.731500     0.742784
   si1_1   Si     0.661128     0.761369     0.697026
   si1_1   Si     0.675846     0.749203     0.724665
   si1_1   Si     0.643729     0.710972     0.684107
   si1_1   Si     0.658447     0.698806     0.711746
   si1_1   Si     0.692389     0.728675     0.665988
   si1_1   Si     0.707107     0.716509     0.693627
   si1_1   Si     0.685373     0.717451     0.719225
   si1_1   Si     0.700091     0.705284     0.746864
   si1_1   Si     0.734032     0.735153     0.701106
   si1_1   Si     0.748750     0.722987     0.728745
   si1_1   Si     0.716633     0.684757     0.688187
   si1_1   Si     0.731351     0.672590     0.715826
   si1_1   Si     0.765293     0.702460     0.670068
   si1_1   Si     0.780011     0.690293     0.697707
   si1_1   Si     0.758277     0.691235     0.723306
   si1_1   Si     0.772995     0.679069     0.750944
   si1_1   Si     0.806936     0.708938     0.705186
   si1_1   Si     0.789537     0.658541     0.692268
   si1_1   Si     0.303454     0.798132     0.685905
   si1_1   Si     0.318172     0.785966     0.713544
   si1_1   Si     0.345098     0.804610     0.721023
   si1_1   Si     0.359816     0.792444     0.748662
   si1_1   Si     0.327699     0.754214     0.708105
   si1_1   Si     0.342417     0.742048     0.735744
   si1_1   Si     0.376358     0.771917     0.689986
   si1_1   Si     0.391076     0.759750     0.717624
   si1_1   Si     0.369342     0.760692     0.743223
   si1_1   Si     0.384060     0.748526     0.770862
   si1_1   Si     0.418002     0.778395     0.725104
   si1_1   Si     0.432720     0.766229     0.752742
   si1_1   Si     0.400603     0.727998     0.712185
   si1_1   Si     0.415321     0.715832     0.739824
   si1_1   Si     0.449262     0.745701     0.694066
   si1_1   Si     0.463980     0.733535     0.721705
   si1_1   Si     0.442246     0.734476     0.747303
   si1_1   Si     0.456964     0.722310     0.774942
   si1_1   Si     0.490906     0.752179     0.729184
   si1_1   Si     0.505624     0.740013     0.756823
   si1_1   Si     0.473506     0.701783     0.716265
   si1_1   Si     0.488224     0.689616     0.743904
   si1_1   Si     0.522166     0.719485     0.698146
   si1_1   Si     0.536884     0.707319     0.725785
   si1_1   Si     0.515150     0.708261     0.751383
   si1_1   Si     0.529868     0.696094     0.779022
   si1_1   Si     0.563810     0.725963     0.733264
   si1_1   Si     0.578528     0.713797     0.760903
   si1_1   Si     0.546410     0.675567     0.720346
   si1_1   Si     0.561128     0.663401     0.747984
   si1_1   Si     0.595070     0.693270     0.702226
   si1_1   Si     0.609788     0.681103     0.729865
   si1_1   Si     0.588054     0.682045     0.755464
   si1_1   Si     0.602772     0.669879     0.783103
   si1_1   Si     0.636713     0.699748     0.737345
   si1_1   Si     0.651431     0.687581     0.764983
   si1_1   Si     0.619314     0.649351     0.724426
   si1_1   Si     0.634032     0.637185     0.752065
   si1_1   Si     0.667974     0.667054     0.706307
   si1_1   Si     0.682692     0.654888     0.733945
   si1_1   Si     0.660958     0.655829     0.759544
   si1_1   Si     0.675676     0.643663     0.787183
   si1_1   Si     0.709617     0.673532     0.741425
   si1_1   Si     0.724335     0.661366     0.769064
   si1_1   Si     0.692218     0.623136     0.728506
   si1_1   Si     0.706936     0.610969     0.756145
   si1_1   Si     0.740877     0.640838     0.710387
   si1_1   Si     0.755595     0.628672     0.738026
   si1_1   Si     0.733862     0.629614     0.763624
   si1_1   Si     0.748580     0.617447     0.791263
   si1_1   Si     0.782521     0.647316     0.745505
   si1_1   Si     0.393587     0.716774     0.765422
   si1_1   Si     0.408305     0.704607     0.793061
   si1_1   Si     0.424847     0.684080     0.734385
   si1_1   Si     0.439565     0.671913     0.762023
   si1_1   Si     0.466491     0.690558     0.769503
   si1_1   Si     0.481209     0.678392     0.797141
   si1_1   Si     0.497751     0.657864     0.738465
   si1_1   Si     0.512469     0.645698     0.766104
   si1_1   Si     0.490735     0.646639     0.791702
   si1_1   Si     0.505453     0.634473     0.819341
   si1_1   Si     0.539394     0.664342     0.773583
   si1_1   Si     0.554112     0.652176     0.801222
   si1_1   Si     0.521995     0.613946     0.760664
   si1_1   Si     0.536713     0.601779     0.788303
   si1_1   Si     0.570655     0.631648     0.742545
   si1_1   Si     0.585373     0.619482     0.770184
   si1_1   Si     0.563639     0.620424     0.795782
   si1_1   Si     0.578357     0.608257     0.823421
   si1_1   Si     0.612298     0.638126     0.777663
   si1_1   Si     0.627016     0.625960     0.805302
   si1_1   Si     0.594899     0.587730     0.764745
   si1_1   Si     0.609617     0.575564     0.792383
   si1_1   Si     0.643559     0.605433     0.746625
   si1_1   Si     0.658277     0.593266     0.774264
   si1_1   Si     0.636543     0.594208     0.799863
   si1_1   Si     0.651261     0.582042     0.827502
   si1_1   Si     0.685202     0.611911     0.781744
   si1_1   Si     0.699920     0.599745     0.809382
   si1_1   Si     0.667803     0.561514     0.768825
   si1_1   Si     0.709446     0.567992     0.803943
   si1_1   Si     0.758106     0.585695     0.785824
   si1_1   Si     0.587883     0.576505     0.817982
   si1_1   Si     0.602601     0.564339     0.845621
   si1_1   Si     0.619143     0.543811     0.786944
   si1_1   Si     0.660787     0.550290     0.822062
   si1_1   Si     0.751773     0.996629     0.588988
   si1_1   Si     0.766491     0.984463     0.616627
   si1_1   Si     0.581550     0.987439     0.621146
   si1_1   Si     0.596268     0.975273     0.648785
   si1_1   Si     0.644928     0.992976     0.630666
   si1_1   Si     0.623194     0.993918     0.656265
   si1_1   Si     0.637912     0.981751     0.683903
   si1_1   Si     0.686571     0.999454     0.665784
   si1_1   Si     0.654454     0.961224     0.625227
   si1_1   Si     0.669172     0.949058     0.652865
   si1_1   Si     0.703114     0.978927     0.607107
   si1_1   Si     0.717832     0.966760     0.634746
   si1_1   Si     0.696098     0.967702     0.660345
   si1_1   Si     0.710816     0.955536     0.687984
   si1_1   Si     0.744757     0.985405     0.642226
   si1_1   Si     0.759475     0.973238     0.669864
   si1_1   Si     0.727358     0.935008     0.629307
   si1_1   Si     0.742076     0.922842     0.656946
   si1_1   Si     0.776017     0.952711     0.611188
   si1_1   Si     0.790735     0.940545     0.638827
   si1_1   Si     0.769001     0.941486     0.664425
   si1_1   Si     0.783719     0.929320     0.692064
   si1_1   Si     0.800262     0.908792     0.633387
   si1_1   Si     0.814980     0.896626     0.661026
   si1_1   Si     0.353142     0.992299     0.676863
   si1_1   Si     0.394785     0.998777     0.711981
   si1_1   Si     0.411327     0.978250     0.653305
   si1_1   Si     0.426045     0.966083     0.680943
   si1_1   Si     0.459987     0.995952     0.635185
   si1_1   Si     0.474705     0.983786     0.662824
   si1_1   Si     0.452971     0.984728     0.688423
   si1_1   Si     0.467689     0.972561     0.716062
   si1_1   Si     0.516348     0.990264     0.697942
   si1_1   Si     0.484231     0.952034     0.657385
   si1_1   Si     0.498949     0.939868     0.685024
   si1_1   Si     0.532891     0.969737     0.639266
   si1_1   Si     0.547609     0.957570     0.666904
   si1_1   Si     0.525875     0.958512     0.692503
   si1_1   Si     0.540593     0.946346     0.720142
   si1_1   Si     0.574534     0.976215     0.674384
   si1_1   Si     0.589252     0.964049     0.702023
   si1_1   Si     0.557135     0.925818     0.661465
   si1_1   Si     0.571853     0.913652     0.689104
   si1_1   Si     0.605795     0.943521     0.643346
   si1_1   Si     0.620513     0.931355     0.670985
   si1_1   Si     0.598779     0.932296     0.696583
   si1_1   Si     0.613497     0.920130     0.724222
   si1_1   Si     0.647438     0.949999     0.678464
   si1_1   Si     0.662156     0.937833     0.706103
   si1_1   Si     0.630039     0.899603     0.665545
   si1_1   Si     0.644757     0.887436     0.693184
   si1_1   Si     0.678698     0.917305     0.647426
   si1_1   Si     0.693416     0.905139     0.675065
   si1_1   Si     0.671682     0.906081     0.700664
   si1_1   Si     0.686400     0.893914     0.728302
   si1_1   Si     0.720342     0.923783     0.682544
   si1_1   Si     0.735060     0.911617     0.710183
   si1_1   Si     0.702943     0.873387     0.669626
   si1_1   Si     0.717661     0.861221     0.697265
   si1_1   Si     0.751602     0.891090     0.651506
   si1_1   Si     0.766320     0.878923     0.679145
   si1_1   Si     0.744586     0.879865     0.704744
   si1_1   Si     0.759304     0.867699     0.732383
   si1_1   Si     0.793246     0.897568     0.686625
   si1_1   Si     0.807964     0.885401     0.714263
   si1_1   Si     0.775847     0.847171     0.673706
   si1_1   Si     0.790565     0.835005     0.701345
   si1_1   Si     0.824506     0.864874     0.655587
   si1_1   Si     0.839224     0.852708     0.683226
   si1_1   Si     0.817490     0.853649     0.708824
   si1_1   Si     0.832208     0.841483     0.736463
   si1_1   Si     0.331408     0.993241     0.702462
   si1_1   Si     0.346126     0.981074     0.730101
   si1_1   Si     0.314009     0.942844     0.689543
   si1_1   Si     0.328727     0.930678     0.717182
   si1_1   Si     0.362668     0.960547     0.671424
   si1_1   Si     0.377386     0.948380     0.699063
   si1_1   Si     0.355652     0.949322     0.724661
   si1_1   Si     0.370370     0.937156     0.752300
   si1_1   Si     0.404312     0.967025     0.706542
   si1_1   Si     0.419030     0.954859     0.734181
   si1_1   Si     0.386912     0.916628     0.693623
   si1_1   Si     0.401630     0.904462     0.721262
   si1_1   Si     0.435572     0.934331     0.675504
   si1_1   Si     0.450290     0.922165     0.703143
   si1_1   Si     0.428556     0.923106     0.728742
   si1_1   Si     0.443274     0.910940     0.756380
   si1_1   Si     0.477215     0.940809     0.710622
   si1_1   Si     0.491933     0.928643     0.738261
   si1_1   Si     0.459816     0.890413     0.697704
   si1_1   Si     0.474534     0.878246     0.725342
   si1_1   Si     0.508476     0.908115     0.679584
   si1_1   Si     0.523194     0.895949     0.707223
   si1_1   Si     0.501460     0.896891     0.732822
   si1_1   Si     0.516178     0.884724     0.760461
   si1_1   Si     0.550119     0.914594     0.714703
   si1_1   Si     0.564837     0.902427     0.742341
   si1_1   Si     0.532720     0.864197     0.701784
   si1_1   Si     0.547438     0.852031     0.729423
   si1_1   Si     0.581379     0.881900     0.683665
   si1_1   Si     0.596097     0.869733     0.711303
   si1_1   Si     0.574364     0.870675     0.736902
   si1_1   Si     0.589082     0.858509     0.764541
   si1_1   Si     0.623023     0.888378     0.718783
   si1_1   Si     0.637741     0.876212     0.746422
   si1_1   Si     0.605624     0.837981     0.705864
   si1_1   Si     0.620342     0.825815     0.733503
   si1_1   Si     0.654283     0.855684     0.687745
   si1_1   Si     0.669001     0.843518     0.715384
   si1_1   Si     0.647267     0.844459     0.740982
   si1_1   Si     0.661985     0.832293     0.768621
   si1_1   Si     0.695927     0.862162     0.722863
   si1_1   Si     0.710645     0.849996     0.750502
   si1_1   Si     0.678528     0.811766     0.709944
   si1_1   Si     0.693246     0.799599     0.737583
   si1_1   Si     0.727187     0.829468     0.691825
   si1_1   Si     0.741905     0.817302     0.719464
   si1_1   Si     0.720171     0.818244     0.745063
   si1_1   Si     0.734889     0.806077     0.772701
   si1_1   Si     0.768831     0.835946     0.726943
   si1_1   Si     0.783549     0.823780     0.754582
   si1_1   Si     0.751431     0.785550     0.714025
   si1_1   Si     0.766149     0.773384     0.741664
   si1_1   Si     0.800091     0.803253     0.695906
   si1_1   Si     0.814809     0.791086     0.723544
   si1_1   Si     0.793075     0.792028     0.749143
   si1_1   Si     0.807793     0.779862     0.776782
   si1_1   Si     0.824335     0.759334     0.718105
   si1_1   Si     0.280067     0.912975     0.735301
   si1_1   Si     0.306993     0.931619     0.742780
   si1_1   Si     0.321711     0.919453     0.770419
   si1_1   Si     0.289593     0.881223     0.729862
   si1_1   Si     0.304311     0.869056     0.757501
   si1_1   Si     0.338253     0.898926     0.711743
   si1_1   Si     0.352971     0.886759     0.739381
   si1_1   Si     0.331237     0.887701     0.764980
   si1_1   Si     0.345955     0.875535     0.792619
   si1_1   Si     0.379896     0.905404     0.746861
   si1_1   Si     0.394614     0.893237     0.774500
   si1_1   Si     0.362497     0.855007     0.733942
   si1_1   Si     0.377215     0.842841     0.761581
   si1_1   Si     0.411157     0.872710     0.715823
   si1_1   Si     0.425875     0.860544     0.743462
   si1_1   Si     0.404141     0.861485     0.769060
   si1_1   Si     0.418859     0.849319     0.796699
   si1_1   Si     0.452800     0.879188     0.750941
   si1_1   Si     0.467518     0.867022     0.778580
   si1_1   Si     0.435401     0.828791     0.738022
   si1_1   Si     0.450119     0.816625     0.765661
   si1_1   Si     0.484061     0.846494     0.719903
   si1_1   Si     0.498779     0.834328     0.747542
   si1_1   Si     0.477045     0.835269     0.773141
   si1_1   Si     0.491763     0.823103     0.800779
   si1_1   Si     0.525704     0.852972     0.755021
   si1_1   Si     0.540422     0.840806     0.782660
   si1_1   Si     0.508305     0.802576     0.742103
   si1_1   Si     0.523023     0.790409     0.769741
   si1_1   Si     0.556964     0.820278     0.723983
   si1_1   Si     0.571682     0.808112     0.751622
   si1_1   Si     0.549948     0.809054     0.777221
   si1_1   Si     0.564666     0.796888     0.804860
   si1_1   Si     0.598608     0.826757     0.759102
   si1_1   Si     0.613326     0.814590     0.786740
   si1_1   Si     0.581209     0.776360     0.746183
   si1_1   Si     0.595927     0.764194     0.773822
   si1_1   Si     0.629868     0.794063     0.728064
   si1_1   Si     0.644586     0.781897     0.755702
   si1_1   Si     0.622852     0.782838     0.781301
   si1_1   Si     0.637570     0.770672     0.808940
   si1_1   Si     0.671512     0.800541     0.763182
   si1_1   Si     0.686230     0.788375     0.790821
   si1_1   Si     0.654113     0.750144     0.750263
   si1_1   Si     0.668831     0.737978     0.777902
   si1_1   Si     0.702772     0.767847     0.732144
   si1_1   Si     0.717490     0.755681     0.759783
   si1_1   Si     0.695756     0.756622     0.785381
   si1_1   Si     0.710474     0.744456     0.813020
   si1_1   Si     0.744416     0.774325     0.767262
   si1_1   Si     0.759134     0.762159     0.794901
   si1_1   Si     0.727016     0.723929     0.754343
   si1_1   Si     0.741734     0.711762     0.781982
   si1_1   Si     0.775676     0.741631     0.736224
   si1_1   Si     0.790394     0.729465     0.763863
   si1_1   Si     0.768660     0.730407     0.789462
   si1_1   Si     0.783378     0.718240     0.817100
   si1_1   Si     0.799920     0.697713     0.758424
   si1_1   Si     0.313838     0.837304     0.752061
   si1_1   Si     0.328556     0.825138     0.779700
   si1_1   Si     0.306822     0.826080     0.805299
   si1_1   Si     0.321540     0.813913     0.832938
   si1_1   Si     0.355481     0.843782     0.787180
   si1_1   Si     0.370199     0.831616     0.814818
   si1_1   Si     0.338082     0.793386     0.774261
   si1_1   Si     0.352800     0.781220     0.801900
   si1_1   Si     0.386742     0.811089     0.756142
   si1_1   Si     0.401460     0.798922     0.783780
   si1_1   Si     0.379726     0.799864     0.809379
   si1_1   Si     0.394444     0.787698     0.837018
   si1_1   Si     0.428385     0.817567     0.791260
   si1_1   Si     0.443103     0.805400     0.818899
   si1_1   Si     0.410986     0.767170     0.778341
   si1_1   Si     0.425704     0.755004     0.805980
   si1_1   Si     0.459645     0.784873     0.760222
   si1_1   Si     0.474363     0.772707     0.787861
   si1_1   Si     0.452630     0.773648     0.813459
   si1_1   Si     0.467348     0.761482     0.841098
   si1_1   Si     0.501289     0.791351     0.795340
   si1_1   Si     0.516007     0.779185     0.822979
   si1_1   Si     0.483890     0.740954     0.782421
   si1_1   Si     0.498608     0.728788     0.810060
   si1_1   Si     0.532549     0.758657     0.764302
   si1_1   Si     0.547267     0.746491     0.791941
   si1_1   Si     0.525533     0.747433     0.817540
   si1_1   Si     0.540251     0.735266     0.845178
   si1_1   Si     0.574193     0.765135     0.799420
   si1_1   Si     0.588911     0.752969     0.827059
   si1_1   Si     0.556794     0.714739     0.786502
   si1_1   Si     0.571512     0.702572     0.814140
   si1_1   Si     0.605453     0.732442     0.768382
   si1_1   Si     0.620171     0.720275     0.796021
   si1_1   Si     0.598437     0.721217     0.821620
   si1_1   Si     0.613155     0.709051     0.849259
   si1_1   Si     0.647097     0.738920     0.803501
   si1_1   Si     0.661815     0.726753     0.831139
   si1_1   Si     0.629697     0.688523     0.790582
   si1_1   Si     0.644415     0.676357     0.818221
   si1_1   Si     0.678357     0.706226     0.772463
   si1_1   Si     0.693075     0.694060     0.800102
   si1_1   Si     0.671341     0.695001     0.825700
   si1_1   Si     0.686059     0.682835     0.853339
   si1_1   Si     0.720000     0.712704     0.807581
   si1_1   Si     0.734718     0.700538     0.835220
   si1_1   Si     0.702601     0.662307     0.794662
   si1_1   Si     0.717319     0.650141     0.822301
   si1_1   Si     0.751261     0.680010     0.776543
   si1_1   Si     0.765979     0.667844     0.804182
   si1_1   Si     0.744245     0.668786     0.829780
   si1_1   Si     0.758963     0.656619     0.857419
   si1_1   Si     0.792904     0.686488     0.811661
   si1_1   Si     0.775505     0.636092     0.798743
   si1_1   Si     0.331066     0.782161     0.827498
   si1_1   Si     0.362326     0.749467     0.796460
   si1_1   Si     0.403970     0.755945     0.831579
   si1_1   Si     0.418688     0.743779     0.859217
   si1_1   Si     0.435230     0.723252     0.800541
   si1_1   Si     0.449948     0.711085     0.828179
   si1_1   Si     0.428214     0.712027     0.853778
   si1_1   Si     0.476874     0.729730     0.835659
   si1_1   Si     0.491592     0.717563     0.863298
   si1_1   Si     0.459475     0.679333     0.822740
   si1_1   Si     0.508134     0.697036     0.804621
   si1_1   Si     0.522852     0.684870     0.832260
   si1_1   Si     0.501118     0.685811     0.857858
   si1_1   Si     0.515836     0.673645     0.885497
   si1_1   Si     0.549778     0.703514     0.839739
   si1_1   Si     0.564496     0.691348     0.867378
   si1_1   Si     0.532378     0.653117     0.826820
   si1_1   Si     0.547096     0.640951     0.854459
   si1_1   Si     0.581038     0.670820     0.808701
   si1_1   Si     0.595756     0.658654     0.836340
   si1_1   Si     0.574022     0.659596     0.861939
   si1_1   Si     0.588740     0.647429     0.889577
   si1_1   Si     0.622682     0.677298     0.843819
   si1_1   Si     0.637400     0.665132     0.871458
   si1_1   Si     0.605282     0.626902     0.830901
   si1_1   Si     0.620000     0.614736     0.858539
   si1_1   Si     0.653942     0.644605     0.812781
   si1_1   Si     0.668660     0.632438     0.840420
   si1_1   Si     0.646926     0.633380     0.866019
   si1_1   Si     0.661644     0.621214     0.893658
   si1_1   Si     0.695585     0.651083     0.847900
   si1_1   Si     0.710303     0.638916     0.875538
   si1_1   Si     0.678186     0.600686     0.834981
   si1_1   Si     0.692904     0.588520     0.862620
   si1_1   Si     0.726846     0.618389     0.816862
   si1_1   Si     0.741564     0.606223     0.844501
   si1_1   Si     0.719830     0.607164     0.870099
   si1_1   Si     0.734548     0.594998     0.897738
   si1_1   Si     0.768489     0.624867     0.851980
   si1_1   Si     0.751090     0.574470     0.839061
   si1_1   Si     0.525363     0.641893     0.880058
   si1_1   Si     0.556623     0.609199     0.849020
   si1_1   Si     0.598266     0.615677     0.884138
   si1_1   Si     0.612984     0.603511     0.911777
   si1_1   Si     0.629527     0.582983     0.853100
   si1_1   Si     0.644245     0.570817     0.880739
   si1_1   Si     0.622511     0.571759     0.906338
   si1_1   Si     0.671170     0.589461     0.888218
   si1_1   Si     0.685888     0.577295     0.915857
   si1_1   Si     0.653771     0.539065     0.875300
   si1_1   Si     0.702431     0.556768     0.857180
   si1_1   Si     0.717149     0.544601     0.884819
   si1_1   Si     0.695415     0.545543     0.910418
   si1_1   Si     0.710133     0.533377     0.938057
   si1_1   Si     0.744074     0.563246     0.892299
   si1_1   Si     0.679555     0.988229     0.719022
   si1_1   Si     0.721199     0.994708     0.754140
   si1_1   Si     0.737741     0.974180     0.695463
   si1_1   Si     0.752459     0.962014     0.723102
   si1_1   Si     0.810645     0.947964     0.699543
   si1_1   Si     0.494615     0.991206     0.723541
   si1_1   Si     0.509333     0.979039     0.751180
   si1_1   Si     0.557992     0.996742     0.733061
   si1_1   Si     0.536258     0.997684     0.758659
   si1_1   Si     0.550976     0.985518     0.786298
   si1_1   Si     0.567518     0.964990     0.727621
   si1_1   Si     0.582236     0.952824     0.755260
   si1_1   Si     0.616178     0.982693     0.709502
   si1_1   Si     0.630896     0.970527     0.737141
   si1_1   Si     0.609162     0.971468     0.762739
   si1_1   Si     0.623880     0.959302     0.790378
   si1_1   Si     0.657821     0.989171     0.744620
   si1_1   Si     0.672539     0.977005     0.772259
   si1_1   Si     0.640422     0.938774     0.731702
   si1_1   Si     0.655140     0.926608     0.759340
   si1_1   Si     0.689082     0.956477     0.713582
   si1_1   Si     0.703800     0.944311     0.741221
   si1_1   Si     0.682066     0.945253     0.766820
   si1_1   Si     0.696784     0.933086     0.794459
   si1_1   Si     0.730725     0.962955     0.748700
   si1_1   Si     0.745443     0.950789     0.776339
   si1_1   Si     0.713326     0.912559     0.735782
   si1_1   Si     0.728044     0.900392     0.763421
   si1_1   Si     0.761986     0.930262     0.717663
   si1_1   Si     0.776704     0.918095     0.745301
   si1_1   Si     0.754970     0.919037     0.770900
   si1_1   Si     0.769688     0.906871     0.798539
   si1_1   Si     0.786230     0.886343     0.739862
   si1_1   Si     0.800948     0.874177     0.767501
   si1_1   Si     0.834889     0.904046     0.721743
   si1_1   Si     0.324392     0.982016     0.755699
   si1_1   Si     0.339110     0.969850     0.783338
   si1_1   Si     0.373051     0.999719     0.737580
   si1_1   Si     0.387769     0.987552     0.765219
   si1_1   Si     0.366035     0.988494     0.790817
   si1_1   Si     0.380753     0.976328     0.818456
   si1_1   Si     0.429413     0.994030     0.800337
   si1_1   Si     0.397296     0.955800     0.759779
   si1_1   Si     0.412014     0.943634     0.787418
   si1_1   Si     0.445955     0.973503     0.741660
   si1_1   Si     0.460673     0.961337     0.769299
   si1_1   Si     0.438939     0.962278     0.794898
   si1_1   Si     0.453657     0.950112     0.822536
   si1_1   Si     0.487599     0.979981     0.776778
   si1_1   Si     0.502317     0.967815     0.804417
   si1_1   Si     0.470199     0.929585     0.763860
   si1_1   Si     0.484917     0.917418     0.791498
   si1_1   Si     0.518859     0.947287     0.745740
   si1_1   Si     0.533577     0.935121     0.773379
   si1_1   Si     0.511843     0.936063     0.798978
   si1_1   Si     0.526561     0.923896     0.826617
   si1_1   Si     0.560503     0.953765     0.780859
   si1_1   Si     0.575221     0.941599     0.808497
   si1_1   Si     0.543103     0.903369     0.767940
   si1_1   Si     0.557821     0.891203     0.795579
   si1_1   Si     0.591763     0.921072     0.749821
   si1_1   Si     0.606481     0.908905     0.777460
   si1_1   Si     0.584747     0.909847     0.803058
   si1_1   Si     0.599465     0.897681     0.830697
   si1_1   Si     0.633406     0.927550     0.784939
   si1_1   Si     0.648124     0.915383     0.812578
   si1_1   Si     0.616007     0.877153     0.772020
   si1_1   Si     0.630725     0.864987     0.799659
   si1_1   Si     0.664667     0.894856     0.753901
   si1_1   Si     0.679385     0.882690     0.781540
   si1_1   Si     0.657651     0.883631     0.807138
   si1_1   Si     0.672369     0.871465     0.834777
   si1_1   Si     0.706310     0.901334     0.789019
   si1_1   Si     0.721028     0.889168     0.816658
   si1_1   Si     0.688911     0.850937     0.776101
   si1_1   Si     0.703629     0.838771     0.803739
   si1_1   Si     0.737570     0.868640     0.757981
   si1_1   Si     0.752288     0.856474     0.785620
   si1_1   Si     0.730555     0.857416     0.811219
   si1_1   Si     0.745273     0.845249     0.838858
   si1_1   Si     0.779214     0.875118     0.793100
   si1_1   Si     0.793932     0.862952     0.820738
   si1_1   Si     0.761815     0.824722     0.780181
   si1_1   Si     0.776533     0.812556     0.807820
   si1_1   Si     0.810474     0.842425     0.762062
   si1_1   Si     0.825192     0.830258     0.789700
   si1_1   Si     0.803458     0.831200     0.815299
   si1_1   Si     0.818176     0.819034     0.842938
   si1_1   Si     0.290450     0.952147     0.801457
   si1_1   Si     0.283434     0.940922     0.854695
   si1_1   Si     0.317376     0.970791     0.808937
   si1_1   Si     0.332094     0.958625     0.836575
   si1_1   Si     0.299977     0.920395     0.796018
   si1_1   Si     0.314695     0.908228     0.823657
   si1_1   Si     0.348636     0.938097     0.777899
   si1_1   Si     0.363354     0.925931     0.805537
   si1_1   Si     0.341620     0.926873     0.831136
   si1_1   Si     0.356338     0.914706     0.858775
   si1_1   Si     0.390280     0.944575     0.813017
   si1_1   Si     0.404998     0.932409     0.840656
   si1_1   Si     0.372881     0.894179     0.800098
   si1_1   Si     0.387599     0.882013     0.827737
   si1_1   Si     0.421540     0.911882     0.781979
   si1_1   Si     0.436258     0.899715     0.809618
   si1_1   Si     0.414524     0.900657     0.835216
   si1_1   Si     0.429242     0.888491     0.862855
   si1_1   Si     0.463184     0.918360     0.817097
   si1_1   Si     0.477902     0.906194     0.844736
   si1_1   Si     0.445784     0.867963     0.804178
   si1_1   Si     0.460502     0.855797     0.831817
   si1_1   Si     0.494444     0.885666     0.786059
   si1_1   Si     0.509162     0.873500     0.813698
   si1_1   Si     0.487428     0.874441     0.839297
   si1_1   Si     0.502146     0.862275     0.866935
   si1_1   Si     0.536087     0.892144     0.821177
   si1_1   Si     0.550805     0.879978     0.848816
   si1_1   Si     0.518688     0.841748     0.808259
   si1_1   Si     0.533406     0.829581     0.835898
   si1_1   Si     0.567348     0.859450     0.790140
   si1_1   Si     0.582066     0.847284     0.817778
   si1_1   Si     0.560332     0.848226     0.843377
   si1_1   Si     0.575050     0.836059     0.871016
   si1_1   Si     0.608991     0.865928     0.825258
   si1_1   Si     0.623709     0.853762     0.852896
   si1_1   Si     0.591592     0.815532     0.812339
   si1_1   Si     0.606310     0.803366     0.839978
   si1_1   Si     0.640251     0.833235     0.794220
   si1_1   Si     0.654969     0.821068     0.821859
   si1_1   Si     0.633236     0.822010     0.847457
   si1_1   Si     0.647954     0.809844     0.875096
   si1_1   Si     0.681895     0.839713     0.829338
   si1_1   Si     0.696613     0.827547     0.856977
   si1_1   Si     0.664496     0.789316     0.816419
   si1_1   Si     0.679214     0.777150     0.844058
   si1_1   Si     0.713155     0.807019     0.798300
   si1_1   Si     0.727873     0.794853     0.825939
   si1_1   Si     0.706139     0.795794     0.851537
   si1_1   Si     0.720857     0.783628     0.879176
   si1_1   Si     0.754799     0.813497     0.833418
   si1_1   Si     0.769517     0.801331     0.861057
   si1_1   Si     0.737400     0.763101     0.820500
   si1_1   Si     0.752118     0.750934     0.848138
   si1_1   Si     0.786059     0.780803     0.802380
   si1_1   Si     0.800777     0.768637     0.830019
   si1_1   Si     0.779043     0.769579     0.855618
   si1_1   Si     0.793761     0.757412     0.883257
   si1_1   Si     0.292961     0.909170     0.849255
   si1_1   Si     0.307679     0.897004     0.876894
   si1_1   Si     0.324221     0.876476     0.818217
   si1_1   Si     0.338939     0.864310     0.845856
   si1_1   Si     0.317205     0.865251     0.871455
   si1_1   Si     0.331923     0.853085     0.899094
   si1_1   Si     0.365865     0.882954     0.853336
   si1_1   Si     0.380583     0.870788     0.880974
   si1_1   Si     0.348465     0.832558     0.840417
   si1_1   Si     0.363183     0.820391     0.868056
   si1_1   Si     0.397125     0.850260     0.822298
   si1_1   Si     0.411843     0.838094     0.849936
   si1_1   Si     0.390109     0.839036     0.875535
   si1_1   Si     0.404827     0.826870     0.903174
   si1_1   Si     0.438768     0.856739     0.857416
   si1_1   Si     0.453486     0.844572     0.885055
   si1_1   Si     0.421369     0.806342     0.844497
   si1_1   Si     0.436087     0.794176     0.872136
   si1_1   Si     0.470029     0.824045     0.826378
   si1_1   Si     0.484747     0.811879     0.854017
   si1_1   Si     0.463013     0.812820     0.879615
   si1_1   Si     0.477731     0.800654     0.907254
   si1_1   Si     0.511672     0.830523     0.861496
   si1_1   Si     0.526390     0.818357     0.889135
   si1_1   Si     0.494273     0.780126     0.848577
   si1_1   Si     0.508991     0.767960     0.876216
   si1_1   Si     0.542933     0.797829     0.830458
   si1_1   Si     0.557651     0.785663     0.858097
   si1_1   Si     0.535917     0.786604     0.883696
   si1_1   Si     0.550635     0.774438     0.911334
   si1_1   Si     0.584576     0.804307     0.865576
   si1_1   Si     0.599294     0.792141     0.893215
   si1_1   Si     0.567177     0.753911     0.852658
   si1_1   Si     0.581895     0.741744     0.880297
   si1_1   Si     0.615836     0.771613     0.834539
   si1_1   Si     0.630554     0.759447     0.862177
   si1_1   Si     0.608820     0.760389     0.887776
   si1_1   Si     0.623538     0.748222     0.915415
   si1_1   Si     0.657480     0.778092     0.869657
   si1_1   Si     0.672198     0.765925     0.897296
   si1_1   Si     0.640081     0.727695     0.856738
   si1_1   Si     0.654799     0.715529     0.884377
   si1_1   Si     0.688740     0.745398     0.838619
   si1_1   Si     0.703458     0.733231     0.866258
   si1_1   Si     0.681724     0.734173     0.891856
   si1_1   Si     0.696442     0.722007     0.919495
   si1_1   Si     0.730384     0.751876     0.873737
   si1_1   Si     0.745102     0.739710     0.901376
   si1_1   Si     0.712985     0.701479     0.860818
   si1_1   Si     0.727703     0.689313     0.888457
   si1_1   Si     0.761644     0.719182     0.842699
   si1_1   Si     0.776362     0.707016     0.870338
   si1_1   Si     0.754628     0.707957     0.895937
   si1_1   Si     0.769346     0.695791     0.923575
   si1_1   Si     0.341450     0.821333     0.893654
   si1_1   Si     0.356168     0.809167     0.921293
   si1_1   Si     0.372710     0.788639     0.862616
   si1_1   Si     0.387428     0.776473     0.890255
   si1_1   Si     0.414353     0.795117     0.897735
   si1_1   Si     0.429071     0.782951     0.925373
   si1_1   Si     0.445614     0.762424     0.866697
   si1_1   Si     0.460332     0.750257     0.894335
   si1_1   Si     0.438598     0.751199     0.919934
   si1_1   Si     0.453316     0.739033     0.947573
   si1_1   Si     0.487257     0.768902     0.901815
   si1_1   Si     0.501975     0.756735     0.929454
   si1_1   Si     0.469858     0.718505     0.888896
   si1_1   Si     0.484576     0.706339     0.916535
   si1_1   Si     0.518517     0.736208     0.870777
   si1_1   Si     0.533235     0.724042     0.898416
   si1_1   Si     0.511502     0.724983     0.924014
   si1_1   Si     0.526220     0.712817     0.951653
   si1_1   Si     0.560161     0.742686     0.905895
   si1_1   Si     0.574879     0.730520     0.933534
   si1_1   Si     0.542762     0.692289     0.892976
   si1_1   Si     0.557480     0.680123     0.920615
   si1_1   Si     0.591421     0.709992     0.874857
   si1_1   Si     0.606139     0.697826     0.902496
   si1_1   Si     0.584405     0.698767     0.928095
   si1_1   Si     0.599123     0.686601     0.955733
   si1_1   Si     0.633065     0.716470     0.909975
   si1_1   Si     0.647783     0.704304     0.937614
   si1_1   Si     0.615666     0.666074     0.897057
   si1_1   Si     0.630384     0.653907     0.924696
   si1_1   Si     0.664325     0.683776     0.878938
   si1_1   Si     0.679043     0.671610     0.906576
   si1_1   Si     0.657309     0.672552     0.932175
   si1_1   Si     0.672027     0.660386     0.959814
   si1_1   Si     0.705969     0.690255     0.914056
   si1_1   Si     0.720687     0.678088     0.941695
   si1_1   Si     0.688569     0.639858     0.901137
   si1_1   Si     0.703287     0.627692     0.928776
   si1_1   Si     0.737229     0.657561     0.883018
   si1_1   Si     0.751947     0.645395     0.910657
   si1_1   Si     0.730213     0.646336     0.936255
   si1_1   Si     0.744931     0.634170     0.963894
   si1_1   Si     0.535746     0.681065     0.946214
   si1_1   Si     0.550464     0.668898     0.973853
   si1_1   Si     0.567006     0.648371     0.915176
   si1_1   Si     0.581724     0.636205     0.942815
   si1_1   Si     0.608650     0.654849     0.950294
   si1_1   Si     0.623368     0.642683     0.977933
   si1_1   Si     0.639910     0.622155     0.919256
   si1_1   Si     0.654628     0.609989     0.946895
   si1_1   Si     0.632894     0.610931     0.972494
   si1_1   Si     0.681554     0.628633     0.954374
   si1_1   Si     0.696272     0.616467     0.982013
   si1_1   Si     0.664154     0.578237     0.941456
   si1_1   Si     0.678872     0.566071     0.969095
   si1_1   Si     0.712814     0.595940     0.923337
   si1_1   Si     0.727532     0.583773     0.950975
   si1_1   Si     0.705798     0.584715     0.976574
   si1_1   Si     0.737058     0.552021     0.945536
   si1_1   Si     0.592620     0.991996     0.821416
   si1_1   Si     0.634263     0.998474     0.856534
   si1_1   Si     0.650806     0.977946     0.797858
   si1_1   Si     0.665524     0.965780     0.825496
   si1_1   Si     0.699465     0.995649     0.779738
   si1_1   Si     0.692449     0.984424     0.832976
   si1_1   Si     0.723709     0.951731     0.801938
   si1_1   Si     0.738427     0.939564     0.829577
   si1_1   Si     0.407679     0.994972     0.825936
   si1_1   Si     0.422397     0.982806     0.853574
   si1_1   Si     0.464041     0.989284     0.888692
   si1_1   Si     0.480583     0.968756     0.830016
   si1_1   Si     0.495301     0.956590     0.857655
   si1_1   Si     0.529242     0.986459     0.811897
   si1_1   Si     0.543960     0.974293     0.839535
   si1_1   Si     0.522226     0.975235     0.865134
   si1_1   Si     0.536944     0.963068     0.892773
   si1_1   Si     0.570886     0.992937     0.847015
   si1_1   Si     0.585604     0.980771     0.874654
   si1_1   Si     0.553487     0.942541     0.834096
   si1_1   Si     0.568205     0.930374     0.861735
   si1_1   Si     0.602146     0.960244     0.815977
   si1_1   Si     0.616864     0.948077     0.843616
   si1_1   Si     0.595130     0.949019     0.869214
   si1_1   Si     0.609848     0.936853     0.896853
   si1_1   Si     0.643790     0.966722     0.851095
   si1_1   Si     0.658508     0.954555     0.878734
   si1_1   Si     0.626390     0.916325     0.838176
   si1_1   Si     0.641108     0.904159     0.865815
   si1_1   Si     0.675050     0.934028     0.820057
   si1_1   Si     0.689768     0.921862     0.847696
   si1_1   Si     0.668034     0.922803     0.873295
   si1_1   Si     0.682752     0.910637     0.900933
   si1_1   Si     0.716693     0.940506     0.855175
   si1_1   Si     0.699294     0.890109     0.842257
   si1_1   Si     0.714012     0.877943     0.869895
   si1_1   Si     0.747954     0.907812     0.824137
   si1_1   Si     0.762672     0.895646     0.851776
   si1_1   Si     0.740938     0.896587     0.877375
   si1_1   Si     0.772198     0.863894     0.846337
   si1_1   Si     0.786916     0.851727     0.873976
   si1_1   Si     0.293818     0.980094     0.920851
   si1_1   Si     0.342477     0.997797     0.902731
   si1_1   Si     0.310360     0.959566     0.862174
   si1_1   Si     0.325078     0.947400     0.889813
   si1_1   Si     0.359019     0.977269     0.844055
   si1_1   Si     0.373737     0.965103     0.871694
   si1_1   Si     0.352004     0.966045     0.897292
   si1_1   Si     0.366722     0.953878     0.924931
   si1_1   Si     0.400663     0.983747     0.879173
   si1_1   Si     0.415381     0.971581     0.906812
   si1_1   Si     0.383264     0.933351     0.866254
   si1_1   Si     0.397982     0.921185     0.893893
   si1_1   Si     0.431923     0.951054     0.848135
   si1_1   Si     0.446641     0.938887     0.875774
   si1_1   Si     0.424907     0.939829     0.901372
   si1_1   Si     0.439625     0.927663     0.929011
   si1_1   Si     0.473567     0.957532     0.883253
   si1_1   Si     0.488285     0.945365     0.910892
   si1_1   Si     0.456168     0.907135     0.870335
   si1_1   Si     0.470886     0.894969     0.897973
   si1_1   Si     0.504827     0.924838     0.852215
   si1_1   Si     0.519545     0.912672     0.879854
   si1_1   Si     0.497811     0.913613     0.905453
   si1_1   Si     0.512529     0.901447     0.933092
   si1_1   Si     0.546471     0.931316     0.887334
   si1_1   Si     0.561189     0.919150     0.914972
   si1_1   Si     0.529071     0.880919     0.874415
   si1_1   Si     0.543789     0.868753     0.902054
   si1_1   Si     0.577731     0.898622     0.856296
   si1_1   Si     0.592449     0.886456     0.883934
   si1_1   Si     0.570715     0.887398     0.909533
   si1_1   Si     0.585433     0.875231     0.937172
   si1_1   Si     0.619375     0.905100     0.891414
   si1_1   Si     0.634093     0.892934     0.919053
   si1_1   Si     0.601975     0.854704     0.878495
   si1_1   Si     0.616693     0.842538     0.906134
   si1_1   Si     0.650635     0.872407     0.860376
   si1_1   Si     0.665353     0.860240     0.888015
   si1_1   Si     0.643619     0.861182     0.913613
   si1_1   Si     0.658337     0.849016     0.941252
   si1_1   Si     0.692278     0.878885     0.895494
   si1_1   Si     0.706996     0.866718     0.923133
   si1_1   Si     0.674879     0.828488     0.882575
   si1_1   Si     0.689597     0.816322     0.910214
   si1_1   Si     0.723539     0.846191     0.864456
   si1_1   Si     0.738257     0.834025     0.892095
   si1_1   Si     0.716523     0.834966     0.917694
   si1_1   Si     0.731241     0.822800     0.945332
   si1_1   Si     0.765182     0.852669     0.899574
   si1_1   Si     0.779900     0.840503     0.927213
   si1_1   Si     0.747783     0.802272     0.886656
   si1_1   Si     0.762501     0.790106     0.914294
   si1_1   Si     0.796442     0.819975     0.868536
   si1_1   Si     0.811160     0.807809     0.896175
   si1_1   Si     0.789427     0.808751     0.921774
   si1_1   Si     0.804145     0.796584     0.949413
   si1_1   Si     0.303344     0.948342     0.915411
   si1_1   Si     0.318062     0.936176     0.943050
   si1_1   Si     0.334604     0.915648     0.884374
   si1_1   Si     0.349322     0.903482     0.912012
   si1_1   Si     0.327588     0.904423     0.937611
   si1_1   Si     0.342306     0.892257     0.965250
   si1_1   Si     0.376248     0.922126     0.919492
   si1_1   Si     0.390966     0.909960     0.947130
   si1_1   Si     0.358849     0.871730     0.906573
   si1_1   Si     0.373567     0.859563     0.934212
   si1_1   Si     0.407508     0.889432     0.888454
   si1_1   Si     0.422226     0.877266     0.916093
   si1_1   Si     0.400492     0.878208     0.941691
   si1_1   Si     0.415210     0.866041     0.969330
   si1_1   Si     0.449152     0.895910     0.923572
   si1_1   Si     0.463870     0.883744     0.951211
   si1_1   Si     0.431753     0.845514     0.910653
   si1_1   Si     0.446471     0.833348     0.938292
   si1_1   Si     0.480412     0.863217     0.892534
   si1_1   Si     0.495130     0.851050     0.920173
   si1_1   Si     0.473396     0.851992     0.945771
   si1_1   Si     0.488114     0.839826     0.973410
   si1_1   Si     0.522056     0.869695     0.927652
   si1_1   Si     0.536774     0.857529     0.955291
   si1_1   Si     0.504656     0.819298     0.914734
   si1_1   Si     0.519374     0.807132     0.942372
   si1_1   Si     0.553316     0.837001     0.896614
   si1_1   Si     0.568034     0.824835     0.924253
   si1_1   Si     0.546300     0.825776     0.949852
   si1_1   Si     0.561018     0.813610     0.977491
   si1_1   Si     0.594959     0.843479     0.931733
   si1_1   Si     0.609677     0.831313     0.959371
   si1_1   Si     0.577560     0.793083     0.918814
   si1_1   Si     0.592278     0.780916     0.946453
   si1_1   Si     0.626220     0.810785     0.900695
   si1_1   Si     0.640938     0.798619     0.928333
   si1_1   Si     0.619204     0.799561     0.953932
   si1_1   Si     0.633922     0.787394     0.981571
   si1_1   Si     0.667863     0.817263     0.935813
   si1_1   Si     0.682581     0.805097     0.963452
   si1_1   Si     0.650464     0.766867     0.922894
   si1_1   Si     0.665182     0.754701     0.950533
   si1_1   Si     0.699123     0.784570     0.904775
   si1_1   Si     0.713842     0.772403     0.932414
   si1_1   Si     0.692108     0.773345     0.958012
   si1_1   Si     0.706826     0.761179     0.985651
   si1_1   Si     0.740767     0.791048     0.939893
   si1_1   Si     0.755485     0.778881     0.967532
   si1_1   Si     0.723368     0.740651     0.926974
   si1_1   Si     0.738086     0.728485     0.954613
   si1_1   Si     0.772027     0.758354     0.908855
   si1_1   Si     0.786745     0.746188     0.936494
   si1_1   Si     0.765011     0.747129     0.962093
   si1_1   Si     0.324907     0.841860     0.952331
   si1_1   Si     0.351833     0.860505     0.959810
   si1_1   Si     0.366551     0.848339     0.987449
   si1_1   Si     0.383093     0.827811     0.928773
   si1_1   Si     0.397811     0.815645     0.956411
   si1_1   Si     0.376077     0.816586     0.982010
   si1_1   Si     0.424737     0.834289     0.963891
   si1_1   Si     0.439455     0.822123     0.991529
   si1_1   Si     0.407337     0.783893     0.950972
   si1_1   Si     0.422055     0.771726     0.978611
   si1_1   Si     0.455997     0.801595     0.932853
   si1_1   Si     0.470715     0.789429     0.960492
   si1_1   Si     0.448981     0.790371     0.986090
   si1_1   Si     0.497640     0.808074     0.967971
   si1_1   Si     0.512358     0.795907     0.995610
   si1_1   Si     0.480241     0.757677     0.955052
   si1_1   Si     0.494959     0.745511     0.982691
   si1_1   Si     0.528901     0.775380     0.936933
   si1_1   Si     0.543619     0.763213     0.964572
   si1_1   Si     0.521885     0.764155     0.990170
   si1_1   Si     0.570544     0.781858     0.972051
   si1_1   Si     0.585262     0.769692     0.999690
   si1_1   Si     0.553145     0.731461     0.959133
   si1_1   Si     0.567863     0.719295     0.986771
   si1_1   Si     0.601805     0.749164     0.941013
   si1_1   Si     0.616523     0.736998     0.968652
   si1_1   Si     0.594789     0.737939     0.994251
   si1_1   Si     0.643448     0.755642     0.976132
   si1_1   Si     0.626049     0.705246     0.963213
   si1_1   Si     0.640767     0.693079     0.990852
   si1_1   Si     0.674708     0.722948     0.945094
   si1_1   Si     0.689426     0.710782     0.972732
   si1_1   Si     0.667692     0.711724     0.998331
   si1_1   Si     0.716352     0.729426     0.980212
   si1_1   Si     0.698953     0.679030     0.967293
   si1_1   Si     0.713671     0.666864     0.994932
   si1_1   Si     0.747612     0.696733     0.949174
   si1_1   Si     0.762330     0.684566     0.976813
   si1_1   Si     0.504486     0.713758     0.977252
   si1_1   Si     0.577389     0.687543     0.981332
   si1_1   Si     0.650293     0.661327     0.985412
   si1_1   Si     0.723197     0.635111     0.989493
   si1_1   Si     0.505684     0.995762     0.923811
   si1_1   Si     0.563870     0.981713     0.900252
   si1_1   Si     0.578588     0.969546     0.927891
   si1_1   Si     0.612529     0.999415     0.882133
   si1_1   Si     0.627247     0.987249     0.909772
   si1_1   Si     0.605513     0.988191     0.935370
   si1_1   Si     0.620231     0.976024     0.963009
   si1_1   Si     0.636774     0.955497     0.904332
   si1_1   Si     0.651492     0.943331     0.931971
   si1_1   Si     0.320743     0.998738     0.928330
   si1_1   Si     0.335461     0.986572     0.955969
   si1_1   Si     0.393647     0.972523     0.932410
   si1_1   Si     0.408365     0.960356     0.960049
   si1_1   Si     0.442307     0.990225     0.914291
   si1_1   Si     0.457025     0.978059     0.941930
   si1_1   Si     0.435291     0.979001     0.967529
   si1_1   Si     0.450009     0.966835     0.995167
   si1_1   Si     0.483950     0.996704     0.949409
   si1_1   Si     0.498668     0.984537     0.977048
   si1_1   Si     0.466551     0.946307     0.936491
   si1_1   Si     0.481269     0.934141     0.964129
   si1_1   Si     0.515210     0.964010     0.918371
   si1_1   Si     0.529928     0.951844     0.946010
   si1_1   Si     0.508195     0.952785     0.971609
   si1_1   Si     0.522913     0.940619     0.999248
   si1_1   Si     0.556854     0.970488     0.953490
   si1_1   Si     0.571572     0.958322     0.981128
   si1_1   Si     0.539455     0.920091     0.940571
   si1_1   Si     0.554173     0.907925     0.968210
   si1_1   Si     0.588114     0.937794     0.922452
   si1_1   Si     0.602832     0.925628     0.950090
   si1_1   Si     0.581098     0.926569     0.975689
   si1_1   Si     0.629758     0.944272     0.957570
   si1_1   Si     0.644476     0.932106     0.985209
   si1_1   Si     0.612359     0.893876     0.944651
   si1_1   Si     0.627077     0.881709     0.972290
   si1_1   Si     0.661018     0.911578     0.926532
   si1_1   Si     0.675736     0.899412     0.954171
   si1_1   Si     0.654002     0.900354     0.979769
   si1_1   Si     0.685262     0.867660     0.948731
   si1_1   Si     0.699980     0.855494     0.976370
   si1_1   Si     0.733922     0.885363     0.930612
   si1_1   Si     0.758166     0.841444     0.952812
   si1_1   Si     0.296328     0.937117     0.968649
   si1_1   Si     0.344988     0.954820     0.950530
   si1_1   Si     0.359706     0.942654     0.978168
   si1_1   Si     0.386631     0.961298     0.985648
   si1_1   Si     0.369232     0.910901     0.972729
   si1_1   Si     0.417891     0.928604     0.954610
   si1_1   Si     0.432609     0.916438     0.982249
   si1_1   Si     0.459535     0.935082     0.989728
   si1_1   Si     0.442136     0.884686     0.976809
   si1_1   Si     0.490795     0.902389     0.958690
   si1_1   Si     0.505513     0.890222     0.986329
   si1_1   Si     0.532439     0.908867     0.993808
   si1_1   Si     0.515040     0.858470     0.980890
   si1_1   Si     0.563699     0.876173     0.962770
   si1_1   Si     0.578417     0.864007     0.990409
   si1_1   Si     0.605343     0.882651     0.997889
   si1_1   Si     0.587943     0.832254     0.984970
   si1_1   Si     0.636603     0.849957     0.966851
   si1_1   Si     0.651321     0.837791     0.994489
   si1_1   Si     0.660847     0.806039     0.989050
   si1_1   Si     0.709507     0.823742     0.970931
   si1_1   Si     0.724225     0.811575     0.998570
   si1_1   Si     0.733751     0.779823     0.993131
   si1_1   Si     0.782411     0.797526     0.975011
   si1_1   Si     0.320573     0.893199     0.990848
   si1_1   Si     0.393476     0.866983     0.994929
   si1_1   Si     0.466380     0.840767     0.999009
   si1_1   Si     0.598498     0.976966     0.988608
   si1_1   Si     0.899403     0.099944     0.228751
   si1_1   Si     0.879974     0.056279     0.255682
   si1_1   Si     0.899038     0.076870     0.302821
   si1_1   Si     0.925774     0.101028     0.249534
   si1_1   Si     0.918467     0.120535     0.275890
   si1_1   Si     0.793918     0.095608     0.145620
   si1_1   Si     0.832411     0.159864     0.165827
   si1_1   Si     0.851840     0.203529     0.138896
   si1_1   Si     0.885336     0.173569     0.170358
   si1_1   Si     0.878212     0.204613     0.159679
   si1_1   Si     0.870904     0.224120     0.186034
   si1_1   Si     0.755059     0.008278     0.199483
   si1_1   Si     0.781796     0.032436     0.146196
   si1_1   Si     0.774489     0.051943     0.172552
   si1_1   Si     0.807985     0.021983     0.204014
   si1_1   Si     0.827414     0.065648     0.177082
   si1_1   Si     0.800860     0.053027     0.193334
   si1_1   Si     0.793553     0.072534     0.219690
   si1_1   Si     0.820289     0.096692     0.166403
   si1_1   Si     0.812982     0.116199     0.192759
   si1_1   Si     0.853785     0.066732     0.197865
   si1_1   Si     0.846478     0.086239     0.224221
   si1_1   Si     0.865907     0.129904     0.197289
   si1_1   Si     0.839353     0.117283     0.213541
   si1_1   Si     0.832046     0.136790     0.239897
   si1_1   Si     0.858782     0.160948     0.186610
   si1_1   Si     0.851475     0.180455     0.212966
   si1_1   Si     0.892278     0.130988     0.218072
   si1_1   Si     0.884971     0.150495     0.244428
   si1_1   Si     0.877846     0.181539     0.233749
   si1_1   Si     0.870539     0.201046     0.260104
   si1_1   Si     0.781431     0.009362     0.220266
   si1_1   Si     0.774123     0.028869     0.246621
   si1_1   Si     0.834356     0.023067     0.224796
   si1_1   Si     0.827049     0.042574     0.251152
   si1_1   Si     0.800495     0.029953     0.267404
   si1_1   Si     0.793187     0.049460     0.293760
   si1_1   Si     0.819924     0.073618     0.240473
   si1_1   Si     0.812616     0.093125     0.266828
   si1_1   Si     0.853420     0.043658     0.271935
   si1_1   Si     0.846112     0.063165     0.298290
   si1_1   Si     0.872849     0.087323     0.245003
   si1_1   Si     0.865542     0.106830     0.271359
   si1_1   Si     0.838988     0.094209     0.287611
   si1_1   Si     0.831680     0.113716     0.313967
   si1_1   Si     0.858417     0.137874     0.260680
   si1_1   Si     0.851109     0.157381     0.287036
   si1_1   Si     0.891913     0.107914     0.292142
   si1_1   Si     0.884605     0.127421     0.318497
   si1_1   Si     0.877481     0.158465     0.307818
   si1_1   Si     0.870173     0.177972     0.334174
   si1_1   Si     0.773758     0.005794     0.320691
   si1_1   Si     0.826683     0.019500     0.325222
   si1_1   Si     0.800129     0.006878     0.341474
   si1_1   Si     0.792822     0.026385     0.367829
   si1_1   Si     0.819558     0.050544     0.314542
   si1_1   Si     0.812251     0.070051     0.340898
   si1_1   Si     0.845747     0.040090     0.372360
   si1_1   Si     0.872484     0.064249     0.319073
   si1_1   Si     0.865176     0.083756     0.345429
   si1_1   Si     0.838622     0.071134     0.361681
   si1_1   Si     0.831315     0.090641     0.388037
   si1_1   Si     0.858051     0.114800     0.334750
   si1_1   Si     0.850744     0.134307     0.361105
   si1_1   Si     0.910977     0.128505     0.339280
   si1_1   Si     0.903669     0.148012     0.365636
   si1_1   Si     0.877115     0.135390     0.381888
   si1_1   Si     0.869808     0.154897     0.408244
   si1_1   Si     0.819193     0.027469     0.388612
   si1_1   Si     0.811885     0.046976     0.414968
   si1_1   Si     0.726926     0.155528     0.082697
   si1_1   Si     0.765419     0.219784     0.102904
   si1_1   Si     0.784848     0.263450     0.075972
   si1_1   Si     0.803912     0.284040     0.123111
   si1_1   Si     0.823341     0.327706     0.096179
   si1_1   Si     0.856837     0.297746     0.127641
   si1_1   Si     0.849713     0.328790     0.116962
   si1_1   Si     0.649574     0.003942     0.116352
   si1_1   Si     0.669004     0.047607     0.089421
   si1_1   Si     0.702500     0.017647     0.120883
   si1_1   Si     0.695375     0.048691     0.110204
   si1_1   Si     0.688067     0.068198     0.136559
   si1_1   Si     0.714804     0.092356     0.083272
   si1_1   Si     0.707497     0.111863     0.109628
   si1_1   Si     0.740993     0.081903     0.141090
   si1_1   Si     0.760422     0.125568     0.114159
   si1_1   Si     0.733868     0.112947     0.130411
   si1_1   Si     0.726561     0.132454     0.156766
   si1_1   Si     0.753297     0.156612     0.103479
   si1_1   Si     0.745990     0.176119     0.129835
   si1_1   Si     0.786793     0.126652     0.134941
   si1_1   Si     0.779486     0.146159     0.161297
   si1_1   Si     0.798915     0.189824     0.134366
   si1_1   Si     0.772361     0.177203     0.150618
   si1_1   Si     0.765054     0.196710     0.176973
   si1_1   Si     0.791790     0.220868     0.123686
   si1_1   Si     0.784483     0.240375     0.150042
   si1_1   Si     0.825286     0.190908     0.155148
   si1_1   Si     0.817979     0.210415     0.181504
   si1_1   Si     0.844716     0.234574     0.128217
   si1_1   Si     0.837408     0.254080     0.154573
   si1_1   Si     0.810854     0.241459     0.170825
   si1_1   Si     0.803547     0.260966     0.197180
   si1_1   Si     0.830283     0.285124     0.143893
   si1_1   Si     0.822976     0.304631     0.170249
   si1_1   Si     0.863779     0.255164     0.175355
   si1_1   Si     0.856472     0.274671     0.201711
   si1_1   Si     0.849347     0.305715     0.191032
   si1_1   Si     0.842040     0.325222     0.217388
   si1_1   Si     0.675946     0.005026     0.137135
   si1_1   Si     0.668638     0.024533     0.163491
   si1_1   Si     0.728871     0.018731     0.141665
   si1_1   Si     0.721563     0.038238     0.168021
   si1_1   Si     0.695009     0.025617     0.184273
   si1_1   Si     0.687702     0.045124     0.210629
   si1_1   Si     0.714439     0.069282     0.157342
   si1_1   Si     0.707131     0.088789     0.183698
   si1_1   Si     0.747935     0.039322     0.188804
   si1_1   Si     0.740627     0.058829     0.215160
   si1_1   Si     0.767364     0.082987     0.161873
   si1_1   Si     0.760057     0.102494     0.188228
   si1_1   Si     0.733503     0.089873     0.204480
   si1_1   Si     0.726195     0.109380     0.230836
   si1_1   Si     0.752932     0.133538     0.177549
   si1_1   Si     0.745624     0.153045     0.203905
   si1_1   Si     0.786428     0.103578     0.209011
   si1_1   Si     0.779120     0.123085     0.235367
   si1_1   Si     0.805857     0.147243     0.182080
   si1_1   Si     0.798550     0.166750     0.208435
   si1_1   Si     0.771996     0.154129     0.224687
   si1_1   Si     0.764688     0.173636     0.251043
   si1_1   Si     0.791425     0.197794     0.197756
   si1_1   Si     0.784117     0.217301     0.224112
   si1_1   Si     0.824921     0.167834     0.229218
   si1_1   Si     0.817613     0.187341     0.255574
   si1_1   Si     0.844350     0.211499     0.202287
   si1_1   Si     0.837043     0.231006     0.228642
   si1_1   Si     0.810489     0.218385     0.244894
   si1_1   Si     0.803181     0.237892     0.271250
   si1_1   Si     0.829918     0.262050     0.217963
   si1_1   Si     0.822611     0.281557     0.244319
   si1_1   Si     0.863414     0.232090     0.249425
   si1_1   Si     0.856107     0.251597     0.275781
   si1_1   Si     0.848982     0.282641     0.265102
   si1_1   Si     0.841674     0.302148     0.291457
   si1_1   Si     0.668273     0.001459     0.237560
   si1_1   Si     0.721198     0.015164     0.242091
   si1_1   Si     0.694644     0.002543     0.258343
   si1_1   Si     0.687337     0.022050     0.284699
   si1_1   Si     0.714073     0.046208     0.231412
   si1_1   Si     0.706766     0.065715     0.257767
   si1_1   Si     0.747569     0.016248     0.262874
   si1_1   Si     0.740262     0.035755     0.289229
   si1_1   Si     0.766999     0.059913     0.235942
   si1_1   Si     0.759691     0.079420     0.262298
   si1_1   Si     0.733137     0.066799     0.278550
   si1_1   Si     0.725830     0.086306     0.304906
   si1_1   Si     0.752566     0.110464     0.251619
   si1_1   Si     0.745259     0.129971     0.277974
   si1_1   Si     0.786062     0.080504     0.283081
   si1_1   Si     0.778755     0.100011     0.309436
   si1_1   Si     0.805492     0.124169     0.256149
   si1_1   Si     0.798184     0.143676     0.282505
   si1_1   Si     0.771630     0.131055     0.298757
   si1_1   Si     0.764323     0.150562     0.325113
   si1_1   Si     0.791059     0.174720     0.271826
   si1_1   Si     0.783752     0.194227     0.298181
   si1_1   Si     0.824555     0.144760     0.303288
   si1_1   Si     0.817248     0.164267     0.329643
   si1_1   Si     0.843985     0.188425     0.276356
   si1_1   Si     0.836677     0.207932     0.302712
   si1_1   Si     0.810123     0.195311     0.318964
   si1_1   Si     0.802816     0.214818     0.345320
   si1_1   Si     0.829553     0.238976     0.292033
   si1_1   Si     0.822245     0.258483     0.318389
   si1_1   Si     0.863049     0.209016     0.323495
   si1_1   Si     0.855741     0.228523     0.349850
   si1_1   Si     0.848616     0.259567     0.339171
   si1_1   Si     0.841309     0.279074     0.365527
   si1_1   Si     0.713708     0.023133     0.305481
   si1_1   Si     0.706400     0.042640     0.331837
   si1_1   Si     0.739896     0.012680     0.363299
   si1_1   Si     0.766633     0.036839     0.310012
   si1_1   Si     0.759326     0.056345     0.336368
   si1_1   Si     0.732772     0.043724     0.352620
   si1_1   Si     0.725464     0.063231     0.378975
   si1_1   Si     0.752201     0.087389     0.325688
   si1_1   Si     0.744893     0.106896     0.352044
   si1_1   Si     0.785697     0.057429     0.357150
   si1_1   Si     0.778389     0.076936     0.383506
   si1_1   Si     0.805126     0.101095     0.330219
   si1_1   Si     0.797819     0.120601     0.356575
   si1_1   Si     0.771265     0.107980     0.372827
   si1_1   Si     0.763957     0.127487     0.399182
   si1_1   Si     0.790694     0.151645     0.345895
   si1_1   Si     0.783387     0.171152     0.372251
   si1_1   Si     0.824190     0.121685     0.377357
   si1_1   Si     0.816883     0.141192     0.403713
   si1_1   Si     0.843619     0.165351     0.350426
   si1_1   Si     0.836312     0.184857     0.376782
   si1_1   Si     0.809758     0.172236     0.393034
   si1_1   Si     0.802450     0.191743     0.419390
   si1_1   Si     0.829187     0.215902     0.366103
   si1_1   Si     0.821880     0.235408     0.392458
   si1_1   Si     0.862683     0.185941     0.397564
   si1_1   Si     0.713342     0.000059     0.379551
   si1_1   Si     0.706035     0.019566     0.405907
   si1_1   Si     0.766268     0.013764     0.384082
   si1_1   Si     0.758960     0.033271     0.410437
   si1_1   Si     0.732406     0.020650     0.426689
   si1_1   Si     0.725099     0.040157     0.453045
   si1_1   Si     0.751835     0.064315     0.399758
   si1_1   Si     0.744528     0.083822     0.426114
   si1_1   Si     0.785331     0.034355     0.431220
   si1_1   Si     0.778024     0.053862     0.457576
   si1_1   Si     0.804761     0.078020     0.404289
   si1_1   Si     0.797453     0.097527     0.430644
   si1_1   Si     0.770899     0.084906     0.446897
   si1_1   Si     0.763592     0.104413     0.473252
   si1_1   Si     0.790329     0.128571     0.419965
   si1_1   Si     0.783021     0.148078     0.446321
   si1_1   Si     0.843254     0.142276     0.424496
   si1_1   Si     0.751470     0.041241     0.473828
   si1_1   Si     0.744163     0.060748     0.500184
   si1_1   Si     0.659934     0.215449     0.019773
   si1_1   Si     0.698427     0.279705     0.039980
   si1_1   Si     0.744228     0.324454     0.033831
   si1_1   Si     0.736920     0.343961     0.060187
   si1_1   Si     0.756349     0.387626     0.033256
   si1_1   Si     0.789845     0.357666     0.064718
   si1_1   Si     0.782721     0.388710     0.054038
   si1_1   Si     0.775413     0.408217     0.080394
   si1_1   Si     0.794843     0.451882     0.053463
   si1_1   Si     0.563519     0.043271     0.006290
   si1_1   Si     0.597015     0.013311     0.037752
   si1_1   Si     0.589890     0.044355     0.027073
   si1_1   Si     0.582582     0.063862     0.053428
   si1_1   Si     0.602012     0.107527     0.026497
   si1_1   Si     0.635508     0.077567     0.057959
   si1_1   Si     0.628383     0.108611     0.047280
   si1_1   Si     0.621075     0.128118     0.073636
   si1_1   Si     0.640505     0.171784     0.046704
   si1_1   Si     0.681308     0.122317     0.051810
   si1_1   Si     0.674001     0.141823     0.078166
   si1_1   Si     0.693430     0.185489     0.051235
   si1_1   Si     0.666876     0.172867     0.067487
   si1_1   Si     0.659569     0.192374     0.093843
   si1_1   Si     0.686305     0.216533     0.040556
   si1_1   Si     0.678998     0.236040     0.066911
   si1_1   Si     0.719801     0.186573     0.072017
   si1_1   Si     0.712494     0.206079     0.098373
   si1_1   Si     0.731923     0.249745     0.071442
   si1_1   Si     0.705369     0.237123     0.087694
   si1_1   Si     0.698062     0.256630     0.114050
   si1_1   Si     0.724798     0.280789     0.060763
   si1_1   Si     0.717491     0.300296     0.087118
   si1_1   Si     0.758294     0.250829     0.092225
   si1_1   Si     0.750987     0.270335     0.118580
   si1_1   Si     0.777724     0.294494     0.065293
   si1_1   Si     0.770416     0.314001     0.091649
   si1_1   Si     0.743862     0.301379     0.107901
   si1_1   Si     0.736555     0.320886     0.134257
   si1_1   Si     0.763291     0.345045     0.080970
   si1_1   Si     0.755984     0.364552     0.107325
   si1_1   Si     0.796787     0.315085     0.112432
   si1_1   Si     0.789480     0.334591     0.138787
   si1_1   Si     0.816217     0.358750     0.085500
   si1_1   Si     0.808909     0.378257     0.111856
   si1_1   Si     0.782355     0.365636     0.128108
   si1_1   Si     0.775048     0.385142     0.154464
   si1_1   Si     0.801785     0.409301     0.101177
   si1_1   Si     0.794477     0.428808     0.127532
   si1_1   Si     0.570461     0.000690     0.054004
   si1_1   Si     0.563153     0.020197     0.080360
   si1_1   Si     0.623386     0.014395     0.058535
   si1_1   Si     0.616078     0.033902     0.084890
   si1_1   Si     0.589524     0.021281     0.101142
   si1_1   Si     0.582217     0.040788     0.127498
   si1_1   Si     0.608954     0.064946     0.074211
   si1_1   Si     0.601646     0.084453     0.100567
   si1_1   Si     0.642450     0.034986     0.105673
   si1_1   Si     0.635142     0.054493     0.132029
   si1_1   Si     0.661879     0.078651     0.078742
   si1_1   Si     0.654571     0.098158     0.105097
   si1_1   Si     0.628017     0.085537     0.121350
   si1_1   Si     0.620710     0.105044     0.147705
   si1_1   Si     0.647447     0.129202     0.094418
   si1_1   Si     0.640139     0.148709     0.120774
   si1_1   Si     0.680943     0.099242     0.125880
   si1_1   Si     0.673635     0.118749     0.152236
   si1_1   Si     0.700372     0.142907     0.098949
   si1_1   Si     0.693065     0.162414     0.125304
   si1_1   Si     0.666511     0.149793     0.141557
   si1_1   Si     0.659203     0.169300     0.167912
   si1_1   Si     0.685940     0.193458     0.114625
   si1_1   Si     0.678632     0.212965     0.140981
   si1_1   Si     0.719436     0.163498     0.146087
   si1_1   Si     0.712128     0.183005     0.172443
   si1_1   Si     0.738865     0.207163     0.119156
   si1_1   Si     0.731558     0.226670     0.145512
   si1_1   Si     0.705004     0.214049     0.161764
   si1_1   Si     0.697696     0.233556     0.188119
   si1_1   Si     0.724433     0.257714     0.134832
   si1_1   Si     0.717125     0.277221     0.161188
   si1_1   Si     0.757929     0.227754     0.166294
   si1_1   Si     0.750621     0.247261     0.192650
   si1_1   Si     0.777358     0.271419     0.139363
   si1_1   Si     0.770051     0.290926     0.165719
   si1_1   Si     0.743497     0.278305     0.181971
   si1_1   Si     0.736189     0.297812     0.208326
   si1_1   Si     0.762926     0.321970     0.155039
   si1_1   Si     0.755619     0.341477     0.181395
   si1_1   Si     0.796422     0.292010     0.186501
   si1_1   Si     0.789115     0.311517     0.212857
   si1_1   Si     0.815851     0.335675     0.159570
   si1_1   Si     0.808544     0.355182     0.185926
   si1_1   Si     0.781990     0.342561     0.202178
   si1_1   Si     0.774682     0.362068     0.228533
   si1_1   Si     0.801419     0.386226     0.175246
   si1_1   Si     0.794112     0.405733     0.201602
   si1_1   Si     0.615713     0.010828     0.158960
   si1_1   Si     0.581851     0.017714     0.201568
   si1_1   Si     0.608588     0.041872     0.148281
   si1_1   Si     0.601281     0.061379     0.174637
   si1_1   Si     0.642084     0.011912     0.179743
   si1_1   Si     0.634777     0.031419     0.206098
   si1_1   Si     0.661513     0.055577     0.152811
   si1_1   Si     0.654206     0.075084     0.179167
   si1_1   Si     0.627652     0.062463     0.195419
   si1_1   Si     0.620345     0.081970     0.221775
   si1_1   Si     0.647081     0.106128     0.168488
   si1_1   Si     0.639774     0.125635     0.194844
   si1_1   Si     0.680577     0.076168     0.199950
   si1_1   Si     0.673270     0.095675     0.226305
   si1_1   Si     0.700007     0.119833     0.173018
   si1_1   Si     0.692699     0.139340     0.199374
   si1_1   Si     0.666145     0.126719     0.215626
   si1_1   Si     0.658838     0.146226     0.241982
   si1_1   Si     0.685574     0.170384     0.188695
   si1_1   Si     0.678267     0.189891     0.215051
   si1_1   Si     0.719070     0.140424     0.220157
   si1_1   Si     0.711763     0.159931     0.246513
   si1_1   Si     0.738500     0.184089     0.193226
   si1_1   Si     0.731192     0.203596     0.219581
   si1_1   Si     0.704638     0.190975     0.235833
   si1_1   Si     0.697331     0.210482     0.262189
   si1_1   Si     0.724067     0.234640     0.208902
   si1_1   Si     0.716760     0.254147     0.235258
   si1_1   Si     0.757563     0.204680     0.240364
   si1_1   Si     0.750256     0.224187     0.266720
   si1_1   Si     0.776993     0.248345     0.213433
   si1_1   Si     0.769685     0.267852     0.239788
   si1_1   Si     0.743131     0.255231     0.256040
   si1_1   Si     0.735824     0.274738     0.282396
   si1_1   Si     0.762561     0.298896     0.229109
   si1_1   Si     0.755253     0.318403     0.255465
   si1_1   Si     0.796057     0.268936     0.260571
   si1_1   Si     0.788749     0.288443     0.286927
   si1_1   Si     0.815486     0.312601     0.233640
   si1_1   Si     0.808178     0.332108     0.259995
   si1_1   Si     0.781624     0.319487     0.276247
   si1_1   Si     0.774317     0.338994     0.302603
   si1_1   Si     0.801054     0.363152     0.249316
   si1_1   Si     0.793746     0.382659     0.275672
   si1_1   Si     0.834550     0.333192     0.280778
   si1_1   Si     0.608223     0.018798     0.222351
   si1_1   Si     0.600915     0.038305     0.248706
   si1_1   Si     0.634411     0.008344     0.280168
   si1_1   Si     0.661148     0.032503     0.226881
   si1_1   Si     0.653841     0.052010     0.253237
   si1_1   Si     0.627287     0.039389     0.269489
   si1_1   Si     0.619979     0.058895     0.295845
   si1_1   Si     0.646716     0.083054     0.242558
   si1_1   Si     0.639408     0.102561     0.268913
   si1_1   Si     0.680212     0.053094     0.274020
   si1_1   Si     0.672904     0.072600     0.300375
   si1_1   Si     0.699641     0.096759     0.247088
   si1_1   Si     0.692334     0.116266     0.273444
   si1_1   Si     0.665780     0.103645     0.289696
   si1_1   Si     0.658472     0.123151     0.316052
   si1_1   Si     0.685209     0.147310     0.262765
   si1_1   Si     0.677901     0.166817     0.289120
   si1_1   Si     0.718705     0.117350     0.294227
   si1_1   Si     0.711397     0.136856     0.320582
   si1_1   Si     0.738134     0.161015     0.267295
   si1_1   Si     0.730827     0.180522     0.293651
   si1_1   Si     0.704273     0.167901     0.309903
   si1_1   Si     0.696965     0.187407     0.336259
   si1_1   Si     0.723702     0.211566     0.282972
   si1_1   Si     0.716395     0.231073     0.309327
   si1_1   Si     0.757198     0.181606     0.314434
   si1_1   Si     0.749891     0.201112     0.340789
   si1_1   Si     0.776627     0.225271     0.287502
   si1_1   Si     0.769320     0.244778     0.313858
   si1_1   Si     0.742766     0.232157     0.330110
   si1_1   Si     0.735458     0.251663     0.356466
   si1_1   Si     0.762195     0.275822     0.303179
   si1_1   Si     0.754888     0.295329     0.329534
   si1_1   Si     0.795691     0.245862     0.334641
   si1_1   Si     0.788384     0.265369     0.360996
   si1_1   Si     0.815120     0.289527     0.307709
   si1_1   Si     0.807813     0.309034     0.334065
   si1_1   Si     0.781259     0.296413     0.350317
   si1_1   Si     0.773951     0.315919     0.376673
   si1_1   Si     0.800688     0.340078     0.323386
   si1_1   Si     0.793381     0.359585     0.349742
   si1_1   Si     0.834184     0.310118     0.354848
   si1_1   Si     0.600550     0.015230     0.322776
   si1_1   Si     0.660783     0.009428     0.300951
   si1_1   Si     0.653475     0.028935     0.327307
   si1_1   Si     0.626921     0.016314     0.343559
   si1_1   Si     0.619614     0.035821     0.369914
   si1_1   Si     0.646350     0.059979     0.316627
   si1_1   Si     0.639043     0.079486     0.342983
   si1_1   Si     0.679846     0.030019     0.348089
   si1_1   Si     0.672539     0.049526     0.374445
   si1_1   Si     0.699276     0.073684     0.321158
   si1_1   Si     0.691968     0.093191     0.347514
   si1_1   Si     0.665414     0.080570     0.363766
   si1_1   Si     0.658107     0.100077     0.390121
   si1_1   Si     0.684843     0.124235     0.336834
   si1_1   Si     0.677536     0.143742     0.363190
   si1_1   Si     0.718339     0.094275     0.368296
   si1_1   Si     0.711032     0.113782     0.394652
   si1_1   Si     0.737769     0.137940     0.341365
   si1_1   Si     0.730461     0.157447     0.367721
   si1_1   Si     0.703907     0.144826     0.383973
   si1_1   Si     0.696600     0.164333     0.410328
   si1_1   Si     0.723337     0.188491     0.357041
   si1_1   Si     0.716029     0.207998     0.383397
   si1_1   Si     0.756833     0.158531     0.388503
   si1_1   Si     0.749525     0.178038     0.414859
   si1_1   Si     0.776262     0.202196     0.361572
   si1_1   Si     0.768954     0.221703     0.387928
   si1_1   Si     0.742400     0.209082     0.404180
   si1_1   Si     0.735093     0.228589     0.430536
   si1_1   Si     0.761830     0.252747     0.377249
   si1_1   Si     0.754522     0.272254     0.403604
   si1_1   Si     0.795326     0.222787     0.408710
   si1_1   Si     0.814755     0.266452     0.381779
   si1_1   Si     0.653110     0.005861     0.401376
   si1_1   Si     0.619248     0.012747     0.443984
   si1_1   Si     0.645985     0.036905     0.390697
   si1_1   Si     0.638678     0.056412     0.417053
   si1_1   Si     0.679481     0.006945     0.422159
   si1_1   Si     0.672173     0.026452     0.448515
   si1_1   Si     0.698910     0.050610     0.395228
   si1_1   Si     0.691603     0.070117     0.421583
   si1_1   Si     0.665049     0.057496     0.437835
   si1_1   Si     0.657741     0.077003     0.464191
   si1_1   Si     0.684478     0.101161     0.410904
   si1_1   Si     0.677171     0.120668     0.437260
   si1_1   Si     0.717974     0.071201     0.442366
   si1_1   Si     0.710667     0.090708     0.468722
   si1_1   Si     0.737403     0.114866     0.415435
   si1_1   Si     0.730096     0.134373     0.441790
   si1_1   Si     0.703542     0.121752     0.458042
   si1_1   Si     0.722971     0.165417     0.431111
   si1_1   Si     0.715664     0.184924     0.457467
   si1_1   Si     0.756467     0.135457     0.462573
   si1_1   Si     0.775896     0.179122     0.435642
   si1_1   Si     0.645620     0.013831     0.464767
   si1_1   Si     0.698545     0.027536     0.469297
   si1_1   Si     0.691237     0.047043     0.495653
   si1_1   Si     0.684113     0.078087     0.484974
   si1_1   Si     0.737038     0.091792     0.489504
   si1_1   Si     0.722853     0.417586     0.001794
   si1_1   Si     0.708421     0.468137     0.017470
   si1_1   Si     0.761347     0.481842     0.022001
   si1_1   Si     0.754222     0.512886     0.011322
   si1_1   Si     0.746914     0.532393     0.037677
   si1_1   Si     0.554083     0.188039     0.010712
   si1_1   Si     0.607009     0.201744     0.015242
   si1_1   Si     0.599884     0.232788     0.004563
   si1_1   Si     0.592577     0.252295     0.030919
   si1_1   Si     0.612006     0.295960     0.003988
   si1_1   Si     0.652809     0.246493     0.009094
   si1_1   Si     0.645502     0.266000     0.035449
   si1_1   Si     0.664931     0.309665     0.008518
   si1_1   Si     0.638377     0.297044     0.024770
   si1_1   Si     0.631070     0.316551     0.051126
   si1_1   Si     0.650499     0.360216     0.024195
   si1_1   Si     0.691302     0.310749     0.029301
   si1_1   Si     0.683995     0.330256     0.055656
   si1_1   Si     0.710732     0.354414     0.002369
   si1_1   Si     0.703424     0.373921     0.028725
   si1_1   Si     0.676870     0.361300     0.044977
   si1_1   Si     0.669563     0.380807     0.071333
   si1_1   Si     0.696299     0.404965     0.018046
   si1_1   Si     0.688992     0.424472     0.044402
   si1_1   Si     0.729795     0.375005     0.049508
   si1_1   Si     0.722488     0.394512     0.075864
   si1_1   Si     0.749225     0.418670     0.022577
   si1_1   Si     0.741917     0.438177     0.048932
   si1_1   Si     0.715363     0.425556     0.065184
   si1_1   Si     0.708056     0.445063     0.091540
   si1_1   Si     0.734793     0.469221     0.038253
   si1_1   Si     0.727485     0.488728     0.064609
   si1_1   Si     0.768289     0.439261     0.069715
   si1_1   Si     0.760981     0.458768     0.096071
   si1_1   Si     0.787718     0.482926     0.042784
   si1_1   Si     0.780410     0.502433     0.069139
   si1_1   Si     0.753856     0.489812     0.085391
   si1_1   Si     0.746549     0.509319     0.111747
   si1_1   Si     0.510593     0.029566     0.001760
   si1_1   Si     0.484039     0.016945     0.018012
   si1_1   Si     0.476732     0.036452     0.044367
   si1_1   Si     0.496161     0.080117     0.017436
   si1_1   Si     0.536965     0.030650     0.022542
   si1_1   Si     0.529657     0.050157     0.048898
   si1_1   Si     0.549086     0.093822     0.021967
   si1_1   Si     0.522532     0.081201     0.038219
   si1_1   Si     0.515225     0.100708     0.064574
   si1_1   Si     0.541962     0.124866     0.011287
   si1_1   Si     0.534654     0.144373     0.037643
   si1_1   Si     0.575458     0.094906     0.042749
   si1_1   Si     0.568150     0.114413     0.069105
   si1_1   Si     0.594887     0.138572     0.015818
   si1_1   Si     0.587579     0.158078     0.042174
   si1_1   Si     0.561025     0.145457     0.058426
   si1_1   Si     0.553718     0.164964     0.084781
   si1_1   Si     0.580455     0.189122     0.031494
   si1_1   Si     0.573147     0.208629     0.057850
   si1_1   Si     0.613951     0.159162     0.062956
   si1_1   Si     0.606643     0.178669     0.089312
   si1_1   Si     0.633380     0.202828     0.036025
   si1_1   Si     0.626073     0.222334     0.062381
   si1_1   Si     0.599519     0.209713     0.078633
   si1_1   Si     0.592211     0.229220     0.104989
   si1_1   Si     0.618948     0.253379     0.051702
   si1_1   Si     0.611640     0.272885     0.078057
   si1_1   Si     0.652444     0.223418     0.083163
   si1_1   Si     0.645136     0.242925     0.109519
   si1_1   Si     0.671873     0.267084     0.056232
   si1_1   Si     0.664566     0.286590     0.082588
   si1_1   Si     0.638012     0.273969     0.098840
   si1_1   Si     0.630704     0.293476     0.125196
   si1_1   Si     0.657441     0.317635     0.071909
   si1_1   Si     0.650133     0.337141     0.098264
   si1_1   Si     0.690937     0.287674     0.103370
   si1_1   Si     0.683629     0.307181     0.129726
   si1_1   Si     0.710366     0.331340     0.076439
   si1_1   Si     0.703059     0.350846     0.102795
   si1_1   Si     0.676505     0.338225     0.119047
   si1_1   Si     0.669197     0.357732     0.145403
   si1_1   Si     0.695934     0.381891     0.092116
   si1_1   Si     0.688627     0.401397     0.118471
   si1_1   Si     0.729430     0.351930     0.123578
   si1_1   Si     0.722123     0.371437     0.149933
   si1_1   Si     0.748859     0.395596     0.096646
   si1_1   Si     0.741552     0.415102     0.123002
   si1_1   Si     0.714998     0.402481     0.139254
   si1_1   Si     0.707690     0.421988     0.165610
   si1_1   Si     0.734427     0.446147     0.112323
   si1_1   Si     0.727120     0.465653     0.138678
   si1_1   Si     0.767923     0.416186     0.143785
   si1_1   Si     0.760616     0.435693     0.170140
   si1_1   Si     0.787352     0.459852     0.116853
   si1_1   Si     0.780045     0.479359     0.143209
   si1_1   Si     0.753491     0.466737     0.159461
   si1_1   Si     0.746183     0.486244     0.185817
   si1_1   Si     0.772920     0.510403     0.132530
   si1_1   Si     0.510228     0.006492     0.075829
   si1_1   Si     0.503103     0.037536     0.065150
   si1_1   Si     0.495796     0.057043     0.091506
   si1_1   Si     0.536599     0.007576     0.096612
   si1_1   Si     0.529292     0.027083     0.122968
   si1_1   Si     0.556028     0.051241     0.069681
   si1_1   Si     0.548721     0.070748     0.096036
   si1_1   Si     0.522167     0.058127     0.112288
   si1_1   Si     0.514859     0.077634     0.138644
   si1_1   Si     0.541596     0.101792     0.085357
   si1_1   Si     0.534289     0.121299     0.111713
   si1_1   Si     0.575092     0.071832     0.116819
   si1_1   Si     0.567785     0.091339     0.143175
   si1_1   Si     0.594521     0.115497     0.089888
   si1_1   Si     0.587214     0.135004     0.116243
   si1_1   Si     0.560660     0.122383     0.132496
   si1_1   Si     0.553353     0.141890     0.158851
   si1_1   Si     0.580089     0.166048     0.105564
   si1_1   Si     0.572782     0.185555     0.131920
   si1_1   Si     0.613585     0.136088     0.137026
   si1_1   Si     0.606278     0.155595     0.163382
   si1_1   Si     0.633015     0.179753     0.110095
   si1_1   Si     0.625707     0.199260     0.136450
   si1_1   Si     0.599153     0.186639     0.152703
   si1_1   Si     0.591846     0.206146     0.179058
   si1_1   Si     0.618582     0.230304     0.125771
   si1_1   Si     0.611275     0.249811     0.152127
   si1_1   Si     0.652078     0.200344     0.157233
   si1_1   Si     0.644771     0.219851     0.183589
   si1_1   Si     0.671508     0.244009     0.130302
   si1_1   Si     0.664200     0.263516     0.156657
   si1_1   Si     0.637646     0.250895     0.172910
   si1_1   Si     0.630339     0.270402     0.199265
   si1_1   Si     0.657075     0.294560     0.145978
   si1_1   Si     0.649768     0.314067     0.172334
   si1_1   Si     0.690571     0.264600     0.177440
   si1_1   Si     0.683264     0.284107     0.203796
   si1_1   Si     0.710001     0.308265     0.150509
   si1_1   Si     0.702693     0.327772     0.176865
   si1_1   Si     0.676139     0.315151     0.193117
   si1_1   Si     0.668832     0.334658     0.219472
   si1_1   Si     0.695569     0.358816     0.166185
   si1_1   Si     0.688261     0.378323     0.192541
   si1_1   Si     0.729065     0.328856     0.197647
   si1_1   Si     0.721757     0.348363     0.224003
   si1_1   Si     0.748494     0.372521     0.170716
   si1_1   Si     0.741186     0.392028     0.197072
   si1_1   Si     0.714632     0.379407     0.213324
   si1_1   Si     0.707325     0.398914     0.239679
   si1_1   Si     0.734062     0.423072     0.186392
   si1_1   Si     0.726754     0.442579     0.212748
   si1_1   Si     0.767558     0.393112     0.217854
   si1_1   Si     0.760250     0.412619     0.244210
   si1_1   Si     0.786987     0.436777     0.190923
   si1_1   Si     0.779679     0.456284     0.217279
   si1_1   Si     0.753125     0.443663     0.233531
   si1_1   Si     0.745818     0.463170     0.259886
   si1_1   Si     0.502738     0.014462     0.139220
   si1_1   Si     0.495430     0.033969     0.165575
   si1_1   Si     0.528926     0.004009     0.197037
   si1_1   Si     0.555663     0.028167     0.143750
   si1_1   Si     0.548355     0.047674     0.170106
   si1_1   Si     0.521801     0.035053     0.186358
   si1_1   Si     0.514494     0.054560     0.212714
   si1_1   Si     0.541231     0.078718     0.159427
   si1_1   Si     0.533923     0.098225     0.185783
   si1_1   Si     0.574727     0.048758     0.190889
   si1_1   Si     0.567419     0.068265     0.217244
   si1_1   Si     0.594156     0.092423     0.163957
   si1_1   Si     0.586849     0.111930     0.190313
   si1_1   Si     0.560295     0.099309     0.206565
   si1_1   Si     0.552987     0.118816     0.232921
   si1_1   Si     0.579724     0.142974     0.179634
   si1_1   Si     0.572416     0.162481     0.205990
   si1_1   Si     0.613220     0.113014     0.211096
   si1_1   Si     0.605912     0.132521     0.237451
   si1_1   Si     0.632649     0.156679     0.184164
   si1_1   Si     0.625342     0.176186     0.210520
   si1_1   Si     0.598788     0.163565     0.226772
   si1_1   Si     0.591480     0.183072     0.253128
   si1_1   Si     0.618217     0.207230     0.199841
   si1_1   Si     0.610909     0.226737     0.226197
   si1_1   Si     0.651713     0.177270     0.231303
   si1_1   Si     0.644405     0.196777     0.257659
   si1_1   Si     0.671142     0.220935     0.204372
   si1_1   Si     0.663835     0.240442     0.230727
   si1_1   Si     0.637281     0.227821     0.246979
   si1_1   Si     0.629973     0.247328     0.273335
   si1_1   Si     0.656710     0.271486     0.220048
   si1_1   Si     0.649403     0.290993     0.246404
   si1_1   Si     0.690206     0.241526     0.251510
   si1_1   Si     0.682899     0.261033     0.277866
   si1_1   Si     0.709635     0.285191     0.224579
   si1_1   Si     0.702328     0.304698     0.250934
   si1_1   Si     0.675774     0.292077     0.267186
   si1_1   Si     0.668466     0.311584     0.293542
   si1_1   Si     0.695203     0.335742     0.240255
   si1_1   Si     0.687896     0.355249     0.266611
   si1_1   Si     0.728699     0.305782     0.271717
   si1_1   Si     0.721392     0.325289     0.298073
   si1_1   Si     0.748128     0.349447     0.244786
   si1_1   Si     0.740821     0.368954     0.271141
   si1_1   Si     0.714267     0.356333     0.287393
   si1_1   Si     0.706959     0.375840     0.313749
   si1_1   Si     0.733696     0.399998     0.260462
   si1_1   Si     0.726389     0.419505     0.286818
   si1_1   Si     0.767192     0.370038     0.291924
   si1_1   Si     0.759885     0.389545     0.318280
   si1_1   Si     0.786621     0.413703     0.264993
   si1_1   Si     0.779314     0.433210     0.291348
   si1_1   Si     0.752760     0.420589     0.307600
   si1_1   Si     0.745453     0.440096     0.333956
   si1_1   Si     0.555297     0.005093     0.217820
   si1_1   Si     0.547990     0.024599     0.244176
   si1_1   Si     0.521436     0.011978     0.260428
   si1_1   Si     0.514129     0.031485     0.286784
   si1_1   Si     0.540865     0.055644     0.233497
   si1_1   Si     0.533558     0.075150     0.259852
   si1_1   Si     0.574361     0.025683     0.264958
   si1_1   Si     0.567054     0.045190     0.291314
   si1_1   Si     0.593791     0.069349     0.238027
   si1_1   Si     0.586483     0.088856     0.264383
   si1_1   Si     0.559929     0.076234     0.280635
   si1_1   Si     0.552622     0.095741     0.306991
   si1_1   Si     0.579358     0.119900     0.253704
   si1_1   Si     0.572051     0.139406     0.280059
   si1_1   Si     0.612854     0.089939     0.285165
   si1_1   Si     0.605547     0.109446     0.311521
   si1_1   Si     0.632284     0.133605     0.258234
   si1_1   Si     0.624976     0.153112     0.284590
   si1_1   Si     0.598422     0.140490     0.300842
   si1_1   Si     0.591115     0.159997     0.327198
   si1_1   Si     0.617851     0.184156     0.273911
   si1_1   Si     0.610544     0.203662     0.300266
   si1_1   Si     0.651347     0.154195     0.305373
   si1_1   Si     0.644040     0.173702     0.331728
   si1_1   Si     0.670777     0.197861     0.278441
   si1_1   Si     0.663469     0.217368     0.304797
   si1_1   Si     0.636915     0.204746     0.321049
   si1_1   Si     0.629608     0.224253     0.347405
   si1_1   Si     0.656345     0.248412     0.294118
   si1_1   Si     0.649037     0.267918     0.320473
   si1_1   Si     0.689841     0.218451     0.325580
   si1_1   Si     0.682533     0.237958     0.351935
   si1_1   Si     0.709270     0.262117     0.298648
   si1_1   Si     0.701962     0.281624     0.325004
   si1_1   Si     0.675408     0.269002     0.341256
   si1_1   Si     0.668101     0.288509     0.367612
   si1_1   Si     0.694838     0.312668     0.314325
   si1_1   Si     0.687530     0.332174     0.340680
   si1_1   Si     0.728334     0.282708     0.345787
   si1_1   Si     0.721026     0.302214     0.372142
   si1_1   Si     0.747763     0.326373     0.318855
   si1_1   Si     0.740455     0.345880     0.345211
   si1_1   Si     0.713901     0.333258     0.361463
   si1_1   Si     0.706594     0.352765     0.387819
   si1_1   Si     0.733331     0.376924     0.334532
   si1_1   Si     0.726023     0.396431     0.360888
   si1_1   Si     0.766827     0.346964     0.365994
   si1_1   Si     0.786256     0.390629     0.339062
   si1_1   Si     0.547625     0.001525     0.318245
   si1_1   Si     0.540500     0.032569     0.307566
   si1_1   Si     0.533192     0.052076     0.333922
   si1_1   Si     0.573996     0.002609     0.339028
   si1_1   Si     0.566688     0.022116     0.365384
   si1_1   Si     0.593425     0.046274     0.312097
   si1_1   Si     0.586118     0.065781     0.338452
   si1_1   Si     0.559564     0.053160     0.354705
   si1_1   Si     0.552256     0.072667     0.381060
   si1_1   Si     0.578993     0.096825     0.327773
   si1_1   Si     0.571685     0.116332     0.354129
   si1_1   Si     0.612489     0.066865     0.359235
   si1_1   Si     0.605181     0.086372     0.385591
   si1_1   Si     0.631918     0.110530     0.332304
   si1_1   Si     0.624611     0.130037     0.358660
   si1_1   Si     0.598057     0.117416     0.374912
   si1_1   Si     0.590749     0.136923     0.401267
   si1_1   Si     0.617486     0.161081     0.347980
   si1_1   Si     0.610179     0.180588     0.374336
   si1_1   Si     0.650982     0.131121     0.379442
   si1_1   Si     0.643675     0.150628     0.405798
   si1_1   Si     0.670411     0.174786     0.352511
   si1_1   Si     0.663104     0.194293     0.378867
   si1_1   Si     0.636550     0.181672     0.395119
   si1_1   Si     0.629242     0.201179     0.421474
   si1_1   Si     0.655979     0.225337     0.368187
   si1_1   Si     0.648672     0.244844     0.394543
   si1_1   Si     0.689475     0.195377     0.399649
   si1_1   Si     0.682168     0.214884     0.426005
   si1_1   Si     0.708904     0.239042     0.372718
   si1_1   Si     0.701597     0.258549     0.399074
   si1_1   Si     0.675043     0.245928     0.415326
   si1_1   Si     0.694472     0.289593     0.388394
   si1_1   Si     0.727968     0.259633     0.419856
   si1_1   Si     0.747397     0.303298     0.392925
   si1_1   Si     0.540134     0.009495     0.381636
   si1_1   Si     0.532827     0.029002     0.407992
   si1_1   Si     0.593060     0.023200     0.386166
   si1_1   Si     0.585752     0.042707     0.412522
   si1_1   Si     0.559198     0.030086     0.428774
   si1_1   Si     0.551891     0.049593     0.455130
   si1_1   Si     0.578627     0.073751     0.401843
   si1_1   Si     0.571320     0.093258     0.428199
   si1_1   Si     0.612124     0.043791     0.433305
   si1_1   Si     0.604816     0.063298     0.459661
   si1_1   Si     0.631553     0.087456     0.406374
   si1_1   Si     0.624245     0.106963     0.432729
   si1_1   Si     0.597691     0.094342     0.448981
   si1_1   Si     0.590384     0.113849     0.475337
   si1_1   Si     0.617121     0.138007     0.422050
   si1_1   Si     0.609813     0.157514     0.448406
   si1_1   Si     0.650617     0.108047     0.453512
   si1_1   Si     0.643309     0.127554     0.479868
   si1_1   Si     0.670046     0.151712     0.426581
   si1_1   Si     0.662738     0.171219     0.452936
   si1_1   Si     0.636184     0.158598     0.469188
   si1_1   Si     0.655614     0.202263     0.442257
   si1_1   Si     0.708539     0.215968     0.446788
   si1_1   Si     0.578262     0.050677     0.475913
   si1_1   Si     0.570955     0.070184     0.502268
   si1_1   Si     0.631187     0.064382     0.480443
   si1_1   Si     0.623880     0.083889     0.506799
   si1_1   Si     0.597326     0.071267     0.523051
   si1_1   Si     0.616755     0.114933     0.496120
   si1_1   Si     0.602571     0.440727     0.008409
   si1_1   Si     0.655496     0.454432     0.012940
   si1_1   Si     0.648371     0.485476     0.002261
   si1_1   Si     0.641064     0.504983     0.028616
   si1_1   Si     0.701297     0.499181     0.006791
   si1_1   Si     0.693989     0.518688     0.033147
   si1_1   Si     0.713418     0.562353     0.006215
   si1_1   Si     0.686864     0.549732     0.022468
   si1_1   Si     0.679557     0.569239     0.048823
   si1_1   Si     0.448233     0.160628     0.001651
   si1_1   Si     0.501158     0.174333     0.006181
   si1_1   Si     0.486726     0.224884     0.021858
   si1_1   Si     0.546959     0.219083     0.000033
   si1_1   Si     0.539651     0.238589     0.026388
   si1_1   Si     0.532527     0.269634     0.015709
   si1_1   Si     0.525219     0.289140     0.042065
   si1_1   Si     0.544648     0.332806     0.015133
   si1_1   Si     0.585452     0.283339     0.020240
   si1_1   Si     0.578144     0.302845     0.046595
   si1_1   Si     0.597574     0.346511     0.019664
   si1_1   Si     0.571020     0.333890     0.035916
   si1_1   Si     0.563712     0.353396     0.062272
   si1_1   Si     0.590449     0.377555     0.008985
   si1_1   Si     0.583141     0.397062     0.035341
   si1_1   Si     0.623945     0.347595     0.040447
   si1_1   Si     0.616637     0.367102     0.066802
   si1_1   Si     0.643374     0.391260     0.013515
   si1_1   Si     0.636067     0.410767     0.039871
   si1_1   Si     0.609513     0.398146     0.056123
   si1_1   Si     0.602205     0.417652     0.082479
   si1_1   Si     0.628942     0.441811     0.029192
   si1_1   Si     0.621635     0.461318     0.055548
   si1_1   Si     0.662438     0.411851     0.060654
   si1_1   Si     0.655131     0.431358     0.087009
   si1_1   Si     0.681867     0.455516     0.033722
   si1_1   Si     0.674560     0.475023     0.060078
   si1_1   Si     0.648006     0.462402     0.076330
   si1_1   Si     0.640698     0.481908     0.102686
   si1_1   Si     0.667435     0.506067     0.049399
   si1_1   Si     0.660128     0.525574     0.075755
   si1_1   Si     0.700931     0.476107     0.080861
   si1_1   Si     0.693624     0.495614     0.107217
   si1_1   Si     0.720360     0.519772     0.053930
   si1_1   Si     0.713053     0.539279     0.080285
   si1_1   Si     0.686499     0.526658     0.096537
   si1_1   Si     0.679191     0.546164     0.122893
   si1_1   Si     0.705928     0.570323     0.069606
   si1_1   Si     0.739424     0.540363     0.101068
   si1_1   Si     0.469607     0.067496     0.033688
   si1_1   Si     0.462300     0.087003     0.060044
   si1_1   Si     0.489036     0.111161     0.006757
   si1_1   Si     0.481729     0.130668     0.033113
   si1_1   Si     0.455175     0.118047     0.049365
   si1_1   Si     0.474604     0.161712     0.022433
   si1_1   Si     0.467297     0.181219     0.048789
   si1_1   Si     0.508100     0.131752     0.053895
   si1_1   Si     0.500793     0.151259     0.080251
   si1_1   Si     0.527529     0.175417     0.026964
   si1_1   Si     0.520222     0.194924     0.053320
   si1_1   Si     0.493668     0.182303     0.069572
   si1_1   Si     0.486361     0.201810     0.095927
   si1_1   Si     0.513097     0.225968     0.042640
   si1_1   Si     0.505790     0.245475     0.068996
   si1_1   Si     0.546593     0.196008     0.074102
   si1_1   Si     0.539286     0.215515     0.100458
   si1_1   Si     0.566023     0.239673     0.047171
   si1_1   Si     0.558715     0.259180     0.073527
   si1_1   Si     0.532161     0.246559     0.089779
   si1_1   Si     0.524854     0.266066     0.116135
   si1_1   Si     0.551590     0.290224     0.062848
   si1_1   Si     0.544283     0.309731     0.089203
   si1_1   Si     0.585086     0.260264     0.094309
   si1_1   Si     0.577779     0.279771     0.120665
   si1_1   Si     0.604516     0.303929     0.067378
   si1_1   Si     0.597208     0.323436     0.093734
   si1_1   Si     0.570654     0.310815     0.109986
   si1_1   Si     0.563347     0.330322     0.136342
   si1_1   Si     0.590083     0.354480     0.083055
   si1_1   Si     0.582776     0.373987     0.109410
   si1_1   Si     0.623579     0.324520     0.114516
   si1_1   Si     0.616272     0.344027     0.140872
   si1_1   Si     0.643009     0.368185     0.087585
   si1_1   Si     0.635701     0.387692     0.113941
   si1_1   Si     0.609147     0.375071     0.130193
   si1_1   Si     0.601840     0.394578     0.156549
   si1_1   Si     0.628577     0.418736     0.103262
   si1_1   Si     0.621269     0.438243     0.129617
   si1_1   Si     0.662073     0.388776     0.134723
   si1_1   Si     0.654765     0.408283     0.161079
   si1_1   Si     0.681502     0.432441     0.107792
   si1_1   Si     0.674194     0.451948     0.134148
   si1_1   Si     0.647640     0.439327     0.150400
   si1_1   Si     0.640333     0.458834     0.176756
   si1_1   Si     0.667070     0.482992     0.123469
   si1_1   Si     0.659762     0.502499     0.149824
   si1_1   Si     0.700566     0.453032     0.154931
   si1_1   Si     0.693258     0.472539     0.181286
   si1_1   Si     0.719995     0.496697     0.127999
   si1_1   Si     0.712687     0.516204     0.154355
   si1_1   Si     0.686133     0.503583     0.170607
   si1_1   Si     0.678826     0.523090     0.196963
   si1_1   Si     0.705563     0.547248     0.143676
   si1_1   Si     0.739059     0.517288     0.175138
   si1_1   Si     0.488671     0.088087     0.080827
   si1_1   Si     0.481363     0.107594     0.107182
   si1_1   Si     0.474239     0.138638     0.096503
   si1_1   Si     0.466931     0.158145     0.122859
   si1_1   Si     0.507735     0.108678     0.127965
   si1_1   Si     0.500427     0.128185     0.154321
   si1_1   Si     0.527164     0.152343     0.101034
   si1_1   Si     0.519857     0.171850     0.127389
   si1_1   Si     0.493303     0.159229     0.143641
   si1_1   Si     0.485995     0.178736     0.169997
   si1_1   Si     0.512732     0.202894     0.116710
   si1_1   Si     0.505424     0.222401     0.143066
   si1_1   Si     0.546228     0.172934     0.148172
   si1_1   Si     0.538920     0.192441     0.174528
   si1_1   Si     0.565657     0.216599     0.121241
   si1_1   Si     0.558350     0.236106     0.147596
   si1_1   Si     0.531796     0.223485     0.163849
   si1_1   Si     0.524488     0.242992     0.190204
   si1_1   Si     0.551225     0.267150     0.136917
   si1_1   Si     0.543917     0.286657     0.163273
   si1_1   Si     0.584721     0.237190     0.168379
   si1_1   Si     0.577413     0.256697     0.194735
   si1_1   Si     0.604150     0.280855     0.141448
   si1_1   Si     0.596843     0.300362     0.167803
   si1_1   Si     0.570289     0.287741     0.184056
   si1_1   Si     0.562981     0.307248     0.210411
   si1_1   Si     0.589718     0.331406     0.157124
   si1_1   Si     0.582411     0.350913     0.183480
   si1_1   Si     0.623214     0.301446     0.188586
   si1_1   Si     0.615907     0.320953     0.214942
   si1_1   Si     0.642643     0.345111     0.161655
   si1_1   Si     0.635336     0.364618     0.188010
   si1_1   Si     0.608782     0.351997     0.204263
   si1_1   Si     0.601474     0.371504     0.230618
   si1_1   Si     0.628211     0.395662     0.177331
   si1_1   Si     0.620904     0.415169     0.203687
   si1_1   Si     0.661707     0.365702     0.208793
   si1_1   Si     0.654400     0.385209     0.235149
   si1_1   Si     0.681136     0.409367     0.181862
   si1_1   Si     0.673829     0.428874     0.208218
   si1_1   Si     0.647275     0.416253     0.224470
   si1_1   Si     0.639967     0.435760     0.250825
   si1_1   Si     0.666704     0.459918     0.197538
   si1_1   Si     0.659397     0.479425     0.223894
   si1_1   Si     0.700200     0.429958     0.229000
   si1_1   Si     0.692893     0.449465     0.255356
   si1_1   Si     0.719629     0.473623     0.202069
   si1_1   Si     0.712322     0.493130     0.228425
   si1_1   Si     0.685768     0.480509     0.244677
   si1_1   Si     0.678461     0.500016     0.271032
   si1_1   Si     0.705197     0.524174     0.217745
   si1_1   Si     0.488305     0.065013     0.154896
   si1_1   Si     0.480998     0.084520     0.181252
   si1_1   Si     0.473873     0.115564     0.170573
   si1_1   Si     0.507369     0.085604     0.202035
   si1_1   Si     0.500062     0.105111     0.228390
   si1_1   Si     0.526799     0.129269     0.175103
   si1_1   Si     0.519491     0.148776     0.201459
   si1_1   Si     0.492937     0.136155     0.217711
   si1_1   Si     0.485630     0.155661     0.244067
   si1_1   Si     0.512366     0.179820     0.190780
   si1_1   Si     0.505059     0.199327     0.217136
   si1_1   Si     0.545862     0.149860     0.222242
   si1_1   Si     0.538555     0.169367     0.248597
   si1_1   Si     0.565292     0.193525     0.195310
   si1_1   Si     0.557984     0.213032     0.221666
   si1_1   Si     0.531430     0.200411     0.237918
   si1_1   Si     0.524123     0.219917     0.264274
   si1_1   Si     0.550859     0.244076     0.210987
   si1_1   Si     0.543552     0.263583     0.237343
   si1_1   Si     0.584355     0.214116     0.242449
   si1_1   Si     0.577048     0.233623     0.268804
   si1_1   Si     0.603785     0.257781     0.215517
   si1_1   Si     0.596477     0.277288     0.241873
   si1_1   Si     0.569923     0.264667     0.258125
   si1_1   Si     0.562616     0.284174     0.284481
   si1_1   Si     0.589353     0.308332     0.231194
   si1_1   Si     0.582045     0.327839     0.257550
   si1_1   Si     0.622849     0.278372     0.262656
   si1_1   Si     0.615541     0.297879     0.289012
   si1_1   Si     0.642278     0.322037     0.235725
   si1_1   Si     0.634970     0.341544     0.262080
   si1_1   Si     0.608416     0.328923     0.278332
   si1_1   Si     0.601109     0.348430     0.304688
   si1_1   Si     0.627846     0.372588     0.251401
   si1_1   Si     0.620538     0.392095     0.277757
   si1_1   Si     0.661342     0.342628     0.282863
   si1_1   Si     0.654034     0.362135     0.309219
   si1_1   Si     0.680771     0.386293     0.255932
   si1_1   Si     0.673463     0.405800     0.282287
   si1_1   Si     0.646909     0.393179     0.298539
   si1_1   Si     0.639602     0.412686     0.324895
   si1_1   Si     0.666339     0.436844     0.271608
   si1_1   Si     0.659031     0.456351     0.297964
   si1_1   Si     0.699835     0.406884     0.303070
   si1_1   Si     0.692527     0.426391     0.329426
   si1_1   Si     0.719264     0.450549     0.276139
   si1_1   Si     0.711957     0.470056     0.302494
   si1_1   Si     0.685403     0.457435     0.318746
   si1_1   Si     0.678095     0.476942     0.345102
   si1_1   Si     0.507004     0.062529     0.276104
   si1_1   Si     0.499696     0.082036     0.302460
   si1_1   Si     0.526433     0.106194     0.249173
   si1_1   Si     0.519126     0.125701     0.275529
   si1_1   Si     0.492572     0.113080     0.291781
   si1_1   Si     0.512001     0.156745     0.264850
   si1_1   Si     0.504693     0.176252     0.291205
   si1_1   Si     0.545497     0.126785     0.296311
   si1_1   Si     0.538189     0.146292     0.322667
   si1_1   Si     0.564926     0.170451     0.269380
   si1_1   Si     0.557619     0.189957     0.295736
   si1_1   Si     0.531065     0.177336     0.311988
   si1_1   Si     0.523757     0.196843     0.338344
   si1_1   Si     0.550494     0.221001     0.285057
   si1_1   Si     0.543187     0.240508     0.311412
   si1_1   Si     0.583990     0.191041     0.316518
   si1_1   Si     0.576683     0.210548     0.342874
   si1_1   Si     0.603419     0.234707     0.289587
   si1_1   Si     0.596112     0.254213     0.315943
   si1_1   Si     0.569558     0.241592     0.332195
   si1_1   Si     0.562250     0.261099     0.358551
   si1_1   Si     0.588987     0.285257     0.305264
   si1_1   Si     0.581680     0.304764     0.331619
   si1_1   Si     0.622483     0.255297     0.336726
   si1_1   Si     0.615176     0.274804     0.363081
   si1_1   Si     0.641912     0.298963     0.309794
   si1_1   Si     0.634605     0.318469     0.336150
   si1_1   Si     0.608051     0.305848     0.352402
   si1_1   Si     0.600743     0.325355     0.378758
   si1_1   Si     0.627480     0.349513     0.325471
   si1_1   Si     0.620173     0.369020     0.351826
   si1_1   Si     0.660976     0.319553     0.356933
   si1_1   Si     0.653669     0.339060     0.383288
   si1_1   Si     0.680405     0.363219     0.330001
   si1_1   Si     0.673098     0.382725     0.356357
   si1_1   Si     0.646544     0.370104     0.372609
   si1_1   Si     0.665973     0.413769     0.345678
   si1_1   Si     0.699469     0.383809     0.377140
   si1_1   Si     0.718899     0.427475     0.350208
   si1_1   Si     0.526068     0.083120     0.323243
   si1_1   Si     0.518760     0.102627     0.349598
   si1_1   Si     0.511635     0.133671     0.338919
   si1_1   Si     0.504328     0.153178     0.365275
   si1_1   Si     0.545131     0.103711     0.370381
   si1_1   Si     0.537824     0.123218     0.396737
   si1_1   Si     0.564561     0.147376     0.343450
   si1_1   Si     0.557253     0.166883     0.369805
   si1_1   Si     0.530699     0.154262     0.386058
   si1_1   Si     0.523392     0.173769     0.412413
   si1_1   Si     0.550129     0.197927     0.359126
   si1_1   Si     0.542821     0.217434     0.385482
   si1_1   Si     0.583625     0.167967     0.390588
   si1_1   Si     0.576317     0.187474     0.416944
   si1_1   Si     0.603054     0.211632     0.363657
   si1_1   Si     0.595746     0.231139     0.390013
   si1_1   Si     0.569192     0.218518     0.406265
   si1_1   Si     0.561885     0.238025     0.432620
   si1_1   Si     0.588622     0.262183     0.379333
   si1_1   Si     0.581314     0.281690     0.405689
   si1_1   Si     0.622118     0.232223     0.410795
   si1_1   Si     0.614810     0.251730     0.437151
   si1_1   Si     0.641547     0.275888     0.383864
   si1_1   Si     0.634239     0.295395     0.410220
   si1_1   Si     0.607685     0.282774     0.426472
   si1_1   Si     0.627115     0.326439     0.399540
   si1_1   Si     0.525702     0.060046     0.397312
   si1_1   Si     0.518395     0.079553     0.423668
   si1_1   Si     0.511270     0.110597     0.412989
   si1_1   Si     0.503963     0.130104     0.439345
   si1_1   Si     0.544766     0.080637     0.444451
   si1_1   Si     0.537459     0.100144     0.470807
   si1_1   Si     0.564195     0.124302     0.417519
   si1_1   Si     0.556888     0.143809     0.443875
   si1_1   Si     0.530334     0.131188     0.460127
   si1_1   Si     0.523026     0.150695     0.486483
   si1_1   Si     0.549763     0.174853     0.433196
   si1_1   Si     0.542456     0.194360     0.459552
   si1_1   Si     0.583259     0.144893     0.464658
   si1_1   Si     0.575952     0.164400     0.491014
   si1_1   Si     0.602688     0.188558     0.437727
   si1_1   Si     0.595381     0.208065     0.464082
   si1_1   Si     0.568827     0.195444     0.480334
   si1_1   Si     0.588256     0.239109     0.453403
   si1_1   Si     0.563830     0.101228     0.491589
   si1_1   Si     0.556522     0.120734     0.517945
   si1_1   Si     0.549398     0.151779     0.507266
   si1_1   Si     0.626632     0.555534     0.044293
   si1_1   Si     0.433801     0.211179     0.017327
   si1_1   Si     0.479601     0.255928     0.011179
   si1_1   Si     0.472294     0.275435     0.037534
   si1_1   Si     0.491723     0.319101     0.010603
   si1_1   Si     0.465169     0.306479     0.026855
   si1_1   Si     0.457862     0.325986     0.053211
   si1_1   Si     0.518094     0.320184     0.031386
   si1_1   Si     0.510787     0.339691     0.057741
   si1_1   Si     0.537524     0.363850     0.004454
   si1_1   Si     0.530216     0.383357     0.030810
   si1_1   Si     0.503662     0.370735     0.047062
   si1_1   Si     0.496355     0.390242     0.073418
   si1_1   Si     0.556587     0.384441     0.051593
   si1_1   Si     0.549280     0.403947     0.077948
   si1_1   Si     0.576017     0.428106     0.024661
   si1_1   Si     0.568709     0.447613     0.051017
   si1_1   Si     0.542155     0.434991     0.067269
   si1_1   Si     0.534848     0.454498     0.093625
   si1_1   Si     0.554277     0.498163     0.066694
   si1_1   Si     0.595081     0.448697     0.071800
   si1_1   Si     0.587773     0.468203     0.098155
   si1_1   Si     0.614510     0.492362     0.044868
   si1_1   Si     0.607202     0.511869     0.071224
   si1_1   Si     0.580648     0.499247     0.087476
   si1_1   Si     0.573341     0.518754     0.113832
   si1_1   Si     0.600078     0.542913     0.060545
   si1_1   Si     0.592770     0.562420     0.086901
   si1_1   Si     0.633574     0.512953     0.092007
   si1_1   Si     0.626266     0.532459     0.118362
   si1_1   Si     0.653003     0.556618     0.065075
   si1_1   Si     0.645695     0.576125     0.091431
   si1_1   Si     0.619141     0.563503     0.107683
   si1_1   Si     0.611834     0.583010     0.134039
   si1_1   Si     0.638571     0.607169     0.080752
   si1_1   Si     0.672067     0.577209     0.112214
   si1_1   Si     0.460172     0.212263     0.038110
   si1_1   Si     0.452865     0.231770     0.064466
   si1_1   Si     0.445740     0.262814     0.053786
   si1_1   Si     0.438432     0.282321     0.080142
   si1_1   Si     0.479236     0.232854     0.085248
   si1_1   Si     0.471928     0.252361     0.111604
   si1_1   Si     0.498665     0.276519     0.058317
   si1_1   Si     0.491358     0.296026     0.084673
   si1_1   Si     0.464804     0.283405     0.100925
   si1_1   Si     0.457496     0.302912     0.127280
   si1_1   Si     0.484233     0.327070     0.073993
   si1_1   Si     0.476925     0.346577     0.100349
   si1_1   Si     0.517729     0.297110     0.105455
   si1_1   Si     0.510421     0.316617     0.131811
   si1_1   Si     0.537158     0.340775     0.078524
   si1_1   Si     0.529851     0.360282     0.104880
   si1_1   Si     0.503297     0.347661     0.121132
   si1_1   Si     0.495989     0.367168     0.147488
   si1_1   Si     0.522726     0.391326     0.094201
   si1_1   Si     0.515419     0.410833     0.120556
   si1_1   Si     0.556222     0.361366     0.125662
   si1_1   Si     0.548915     0.380873     0.152018
   si1_1   Si     0.575651     0.405031     0.098731
   si1_1   Si     0.568344     0.424538     0.125087
   si1_1   Si     0.541790     0.411917     0.141339
   si1_1   Si     0.534482     0.431424     0.167695
   si1_1   Si     0.561219     0.455582     0.114408
   si1_1   Si     0.553912     0.475089     0.140763
   si1_1   Si     0.594715     0.425622     0.145869
   si1_1   Si     0.587408     0.445129     0.172225
   si1_1   Si     0.614144     0.469287     0.118938
   si1_1   Si     0.606837     0.488794     0.145294
   si1_1   Si     0.580283     0.476173     0.161546
   si1_1   Si     0.572975     0.495680     0.187902
   si1_1   Si     0.599712     0.519838     0.134615
   si1_1   Si     0.592405     0.539345     0.160970
   si1_1   Si     0.633208     0.489878     0.166076
   si1_1   Si     0.625901     0.509385     0.192432
   si1_1   Si     0.652637     0.533543     0.139145
   si1_1   Si     0.645330     0.553050     0.165501
   si1_1   Si     0.618776     0.540429     0.181753
   si1_1   Si     0.611469     0.559936     0.208109
   si1_1   Si     0.638205     0.584094     0.154822
   si1_1   Si     0.671701     0.554134     0.186284
   si1_1   Si     0.459807     0.189189     0.112180
   si1_1   Si     0.452499     0.208696     0.138535
   si1_1   Si     0.445374     0.239740     0.127856
   si1_1   Si     0.478870     0.209780     0.159318
   si1_1   Si     0.471563     0.229287     0.185674
   si1_1   Si     0.498300     0.253445     0.132387
   si1_1   Si     0.490992     0.272952     0.158742
   si1_1   Si     0.464438     0.260331     0.174994
   si1_1   Si     0.457131     0.279838     0.201350
   si1_1   Si     0.483867     0.303996     0.148063
   si1_1   Si     0.476560     0.323503     0.174419
   si1_1   Si     0.517363     0.274036     0.179525
   si1_1   Si     0.510056     0.293543     0.205881
   si1_1   Si     0.536793     0.317701     0.152594
   si1_1   Si     0.529485     0.337208     0.178949
   si1_1   Si     0.502931     0.324587     0.195202
   si1_1   Si     0.495624     0.344094     0.221557
   si1_1   Si     0.522361     0.368252     0.168270
   si1_1   Si     0.515053     0.387759     0.194626
   si1_1   Si     0.555857     0.338292     0.199732
   si1_1   Si     0.548549     0.357799     0.226088
   si1_1   Si     0.575286     0.381957     0.172801
   si1_1   Si     0.567978     0.401464     0.199156
   si1_1   Si     0.541424     0.388843     0.215409
   si1_1   Si     0.534117     0.408350     0.241764
   si1_1   Si     0.560854     0.432508     0.188477
   si1_1   Si     0.553546     0.452015     0.214833
   si1_1   Si     0.594350     0.402548     0.219939
   si1_1   Si     0.587042     0.422055     0.246295
   si1_1   Si     0.613779     0.446213     0.193008
   si1_1   Si     0.606471     0.465720     0.219363
   si1_1   Si     0.579917     0.453099     0.235616
   si1_1   Si     0.572610     0.472606     0.261971
   si1_1   Si     0.599347     0.496764     0.208684
   si1_1   Si     0.592039     0.516271     0.235040
   si1_1   Si     0.632843     0.466804     0.240146
   si1_1   Si     0.625535     0.486311     0.266502
   si1_1   Si     0.652272     0.510469     0.213215
   si1_1   Si     0.644965     0.529976     0.239571
   si1_1   Si     0.618411     0.517355     0.255823
   si1_1   Si     0.611103     0.536862     0.282178
   si1_1   Si     0.637840     0.561020     0.228891
   si1_1   Si     0.478505     0.186706     0.233388
   si1_1   Si     0.471197     0.206212     0.259743
   si1_1   Si     0.497934     0.230371     0.206456
   si1_1   Si     0.490627     0.249878     0.232812
   si1_1   Si     0.464073     0.237256     0.249064
   si1_1   Si     0.483502     0.280922     0.222133
   si1_1   Si     0.476195     0.300429     0.248489
   si1_1   Si     0.516998     0.250962     0.253595
   si1_1   Si     0.509691     0.270468     0.279950
   si1_1   Si     0.536427     0.294627     0.226663
   si1_1   Si     0.529120     0.314134     0.253019
   si1_1   Si     0.502566     0.301513     0.269271
   si1_1   Si     0.495258     0.321019     0.295627
   si1_1   Si     0.521995     0.345178     0.242340
   si1_1   Si     0.514688     0.364685     0.268696
   si1_1   Si     0.555491     0.315218     0.273802
   si1_1   Si     0.548184     0.334724     0.300157
   si1_1   Si     0.574920     0.358883     0.246870
   si1_1   Si     0.567613     0.378390     0.273226
   si1_1   Si     0.541059     0.365769     0.289478
   si1_1   Si     0.533751     0.385275     0.315834
   si1_1   Si     0.560488     0.409434     0.262547
   si1_1   Si     0.553181     0.428941     0.288903
   si1_1   Si     0.593984     0.379474     0.294009
   si1_1   Si     0.586677     0.398980     0.320365
   si1_1   Si     0.613413     0.423139     0.267078
   si1_1   Si     0.606106     0.442646     0.293433
   si1_1   Si     0.579552     0.430025     0.309685
   si1_1   Si     0.572245     0.449531     0.336041
   si1_1   Si     0.598981     0.473690     0.282754
   si1_1   Si     0.591674     0.493197     0.309110
   si1_1   Si     0.632477     0.443730     0.314216
   si1_1   Si     0.625170     0.463236     0.340572
   si1_1   Si     0.651907     0.487395     0.287285
   si1_1   Si     0.644599     0.506902     0.313640
   si1_1   Si     0.618045     0.494281     0.329892
   si1_1   Si     0.497569     0.207296     0.280526
   si1_1   Si     0.490261     0.226803     0.306882
   si1_1   Si     0.483137     0.257847     0.296203
   si1_1   Si     0.475829     0.277354     0.322558
   si1_1   Si     0.516633     0.227887     0.327664
   si1_1   Si     0.509325     0.247394     0.354020
   si1_1   Si     0.536062     0.271552     0.300733
   si1_1   Si     0.528754     0.291059     0.327089
   si1_1   Si     0.502200     0.278438     0.343341
   si1_1   Si     0.494893     0.297945     0.369697
   si1_1   Si     0.521630     0.322103     0.316410
   si1_1   Si     0.514322     0.341610     0.342765
   si1_1   Si     0.555126     0.292143     0.347871
   si1_1   Si     0.547818     0.311650     0.374227
   si1_1   Si     0.574555     0.335808     0.320940
   si1_1   Si     0.567247     0.355315     0.347296
   si1_1   Si     0.540693     0.342694     0.363548
   si1_1   Si     0.533386     0.362201     0.389904
   si1_1   Si     0.560123     0.386359     0.336617
   si1_1   Si     0.552815     0.405866     0.362972
   si1_1   Si     0.593619     0.356399     0.368079
   si1_1   Si     0.586311     0.375906     0.394434
   si1_1   Si     0.613048     0.400064     0.341147
   si1_1   Si     0.605741     0.419571     0.367503
   si1_1   Si     0.579187     0.406950     0.383755
   si1_1   Si     0.598616     0.450615     0.356824
   si1_1   Si     0.497203     0.184222     0.354596
   si1_1   Si     0.489896     0.203729     0.380951
   si1_1   Si     0.482771     0.234773     0.370272
   si1_1   Si     0.475464     0.254280     0.396628
   si1_1   Si     0.516267     0.204813     0.401734
   si1_1   Si     0.508960     0.224320     0.428090
   si1_1   Si     0.535696     0.248478     0.374803
   si1_1   Si     0.528389     0.267985     0.401158
   si1_1   Si     0.501835     0.255364     0.417411
   si1_1   Si     0.494527     0.274871     0.443766
   si1_1   Si     0.521264     0.299029     0.390479
   si1_1   Si     0.513957     0.318536     0.416835
   si1_1   Si     0.554760     0.269069     0.421941
   si1_1   Si     0.547453     0.288576     0.448297
   si1_1   Si     0.574189     0.312734     0.395010
   si1_1   Si     0.566882     0.332241     0.421366
   si1_1   Si     0.540328     0.319620     0.437618
   si1_1   Si     0.559757     0.363285     0.410686
   si1_1   Si     0.496838     0.161148     0.428665
   si1_1   Si     0.515902     0.181739     0.475804
   si1_1   Si     0.535331     0.225404     0.448873
   si1_1   Si     0.528023     0.244911     0.475228
   si1_1   Si     0.520899     0.275955     0.464549
   si1_1   Si     0.443429     0.376537     0.068887
   si1_1   Si     0.481923     0.440793     0.089094
   si1_1   Si     0.527723     0.485542     0.082946
   si1_1   Si     0.520416     0.505049     0.109301
   si1_1   Si     0.505983     0.555600     0.124978
   si1_1   Si     0.566216     0.549798     0.103153
   si1_1   Si     0.558909     0.569305     0.129508
   si1_1   Si     0.551784     0.600349     0.118829
   si1_1   Si     0.604709     0.614054     0.123360
   si1_1   Si     0.431308     0.313365     0.069463
   si1_1   Si     0.424000     0.332872     0.095819
   si1_1   Si     0.416875     0.363916     0.085139
   si1_1   Si     0.450371     0.333956     0.116601
   si1_1   Si     0.443064     0.353463     0.142957
   si1_1   Si     0.469801     0.377621     0.089670
   si1_1   Si     0.462493     0.397128     0.116026
   si1_1   Si     0.435939     0.384507     0.132278
   si1_1   Si     0.428632     0.404014     0.158633
   si1_1   Si     0.455369     0.428172     0.105346
   si1_1   Si     0.448061     0.447679     0.131702
   si1_1   Si     0.488865     0.398212     0.136808
   si1_1   Si     0.481557     0.417719     0.163164
   si1_1   Si     0.508294     0.441877     0.109877
   si1_1   Si     0.500986     0.461384     0.136233
   si1_1   Si     0.474432     0.448763     0.152485
   si1_1   Si     0.467125     0.468270     0.178841
   si1_1   Si     0.493862     0.492428     0.125554
   si1_1   Si     0.486554     0.511935     0.151909
   si1_1   Si     0.527358     0.462468     0.157015
   si1_1   Si     0.520050     0.481975     0.183371
   si1_1   Si     0.546787     0.506133     0.130084
   si1_1   Si     0.539479     0.525640     0.156440
   si1_1   Si     0.512925     0.513019     0.172692
   si1_1   Si     0.505618     0.532526     0.199048
   si1_1   Si     0.532355     0.556684     0.145761
   si1_1   Si     0.525047     0.576191     0.172116
   si1_1   Si     0.565851     0.526724     0.177222
   si1_1   Si     0.558543     0.546231     0.203578
   si1_1   Si     0.585280     0.570389     0.150291
   si1_1   Si     0.577973     0.589896     0.176647
   si1_1   Si     0.551419     0.577275     0.192899
   si1_1   Si     0.604344     0.590980     0.197430
   si1_1   Si     0.450006     0.310882     0.190671
   si1_1   Si     0.442699     0.330389     0.217027
   si1_1   Si     0.469435     0.354547     0.163740
   si1_1   Si     0.462128     0.374054     0.190095
   si1_1   Si     0.435574     0.361433     0.206347
   si1_1   Si     0.428266     0.380940     0.232703
   si1_1   Si     0.455003     0.405098     0.179416
   si1_1   Si     0.447696     0.424605     0.205772
   si1_1   Si     0.488499     0.375138     0.210878
   si1_1   Si     0.481192     0.394645     0.237234
   si1_1   Si     0.507928     0.418803     0.183947
   si1_1   Si     0.500621     0.438310     0.210302
   si1_1   Si     0.474067     0.425689     0.226555
   si1_1   Si     0.466759     0.445196     0.252910
   si1_1   Si     0.493496     0.469354     0.199623
   si1_1   Si     0.486189     0.488861     0.225979
   si1_1   Si     0.526992     0.439394     0.231085
   si1_1   Si     0.519685     0.458901     0.257441
   si1_1   Si     0.546421     0.483059     0.204154
   si1_1   Si     0.539114     0.502566     0.230509
   si1_1   Si     0.512560     0.489945     0.246762
   si1_1   Si     0.505253     0.509452     0.273117
   si1_1   Si     0.531989     0.533610     0.219830
   si1_1   Si     0.524682     0.553117     0.246186
   si1_1   Si     0.565485     0.503650     0.251292
   si1_1   Si     0.558178     0.523157     0.277648
   si1_1   Si     0.584915     0.547315     0.224361
   si1_1   Si     0.577607     0.566822     0.250717
   si1_1   Si     0.551053     0.554201     0.266969
   si1_1   Si     0.570482     0.597866     0.240037
   si1_1   Si     0.469070     0.331473     0.237809
   si1_1   Si     0.461762     0.350979     0.264165
   si1_1   Si     0.454638     0.382024     0.253486
   si1_1   Si     0.447330     0.401530     0.279842
   si1_1   Si     0.488134     0.352063     0.284948
   si1_1   Si     0.480826     0.371570     0.311303
   si1_1   Si     0.507563     0.395729     0.258016
   si1_1   Si     0.500255     0.415235     0.284372
   si1_1   Si     0.473701     0.402614     0.300624
   si1_1   Si     0.466394     0.422121     0.326980
   si1_1   Si     0.493131     0.446280     0.273693
   si1_1   Si     0.485823     0.465786     0.300049
   si1_1   Si     0.526627     0.416319     0.305155
   si1_1   Si     0.519319     0.435826     0.331510
   si1_1   Si     0.546056     0.459985     0.278223
   si1_1   Si     0.538749     0.479492     0.304579
   si1_1   Si     0.512195     0.466870     0.320831
   si1_1   Si     0.504887     0.486377     0.347187
   si1_1   Si     0.531624     0.510536     0.293900
   si1_1   Si     0.524316     0.530042     0.320256
   si1_1   Si     0.565120     0.480575     0.325362
   si1_1   Si     0.557812     0.500082     0.351718
   si1_1   Si     0.584549     0.524241     0.298431
   si1_1   Si     0.577242     0.543748     0.324786
   si1_1   Si     0.550688     0.531126     0.341038
   si1_1   Si     0.468704     0.308398     0.311879
   si1_1   Si     0.461397     0.327905     0.338235
   si1_1   Si     0.454272     0.358949     0.327556
   si1_1   Si     0.487768     0.328989     0.359017
   si1_1   Si     0.480461     0.348496     0.385373
   si1_1   Si     0.507197     0.372654     0.332086
   si1_1   Si     0.499890     0.392161     0.358442
   si1_1   Si     0.473336     0.379540     0.374694
   si1_1   Si     0.466029     0.399047     0.401050
   si1_1   Si     0.492765     0.423205     0.347763
   si1_1   Si     0.485458     0.442712     0.374118
   si1_1   Si     0.526261     0.393245     0.379225
   si1_1   Si     0.518954     0.412752     0.405580
   si1_1   Si     0.545691     0.436910     0.352293
   si1_1   Si     0.538383     0.456417     0.378649
   si1_1   Si     0.511829     0.443796     0.394901
   si1_1   Si     0.531258     0.487461     0.367970
   si1_1   Si     0.468339     0.285324     0.385949
   si1_1   Si     0.487403     0.305915     0.433087
   si1_1   Si     0.506832     0.349580     0.406156
   si1_1   Si     0.499525     0.369087     0.432512
   si1_1   Si     0.492400     0.400131     0.421832
   si1_1   Si     0.421507     0.435058     0.147954
   si1_1   Si     0.414200     0.454565     0.174310
   si1_1   Si     0.433629     0.498230     0.147379
   si1_1   Si     0.460000     0.499314     0.168161
   si1_1   Si     0.421142     0.411984     0.222024
   si1_1   Si     0.440571     0.455649     0.195093
   si1_1   Si     0.433263     0.475156     0.221448
   si1_1   Si     0.459635     0.476240     0.242231
   si1_1   Si     0.479064     0.519905     0.215300
   si1_1   Si     0.440205     0.432574     0.269162
   si1_1   Si     0.432898     0.452081     0.295518
   si1_1   Si     0.459269     0.453165     0.316301
   si1_1   Si     0.451962     0.472672     0.342656
   si1_1   Si     0.478699     0.496831     0.289369
   si1_1   Si     0.497762     0.517421     0.336508
   si1_1   Si     0.439840     0.409500     0.343232
   si1_1   Si     0.458904     0.430091     0.390370
   si1_1   Si     0.478333     0.473756     0.363439
   si1_1   Si     0.974810     0.456815     0.547455
   si1_1   Si     0.980121     0.419718     0.599739
   si1_1   Si     0.969544     0.451536     0.601804
   si1_1   Si     0.995926     0.471835     0.606332
   si1_1   Si     0.985350     0.503653     0.608398
   si1_1   Si     0.900929     0.401199     0.479523
   si1_1   Si     0.890353     0.433017     0.481589
   si1_1   Si     0.943158     0.413098     0.512456
   si1_1   Si     0.932581     0.444916     0.514522
   si1_1   Si     0.927315     0.439637     0.568871
   si1_1   Si     0.911469     0.448037     0.540466
   si1_1   Si     0.900892     0.479855     0.542532
   si1_1   Si     0.953698     0.459936     0.573399
   si1_1   Si     0.943121     0.491754     0.575465
   si1_1   Si     0.895627     0.474576     0.596881
   si1_1   Si     0.948432     0.454657     0.627748
   si1_1   Si     0.937855     0.486475     0.629814
   si1_1   Si     0.922009     0.494875     0.601408
   si1_1   Si     0.911432     0.526693     0.603474
   si1_1   Si     0.858664     0.467956     0.509598
   si1_1   Si     0.826975     0.502895     0.537608
   si1_1   Si     0.879780     0.482976     0.568475
   si1_1   Si     0.869203     0.514794     0.570541
   si1_1   Si     0.863938     0.509515     0.624890
   si1_1   Si     0.848091     0.517914     0.596485
   si1_1   Si     0.837515     0.549733     0.598551
   si1_1   Si     0.890320     0.529813     0.629418
   si1_1   Si     0.879743     0.561632     0.631484
   si1_1   Si     0.832249     0.544454     0.652900
   si1_1   Si     0.858631     0.564752     0.657428
   si1_1   Si     0.848054     0.596571     0.659493
   si1_1   Si     0.795286     0.537834     0.565617
   si1_1   Si     0.763597     0.572773     0.593627
   si1_1   Si     0.816402     0.552853     0.624494
   si1_1   Si     0.805826     0.584672     0.626560
   si1_1   Si     0.800560     0.579393     0.680909
   si1_1   Si     0.784713     0.587792     0.652504
   si1_1   Si     0.774137     0.619610     0.654570
   si1_1   Si     0.826942     0.599691     0.685437
   si1_1   Si     0.816365     0.631509     0.687503
   si1_1   Si     0.731908     0.607712     0.621636
   si1_1   Si     0.980075     0.462094     0.493106
   si1_1   Si     0.995881     0.514211     0.499699
   si1_1   Si     0.990615     0.508932     0.554049
   si1_1   Si     0.895618     0.438296     0.427239
   si1_1   Si     0.937847     0.450195     0.460173
   si1_1   Si     0.922000     0.458595     0.431767
   si1_1   Si     0.911424     0.490413     0.433833
   si1_1   Si     0.964229     0.470494     0.464700
   si1_1   Si     0.953652     0.502312     0.466766
   si1_1   Si     0.916735     0.453316     0.486116
   si1_1   Si     0.906158     0.485134     0.488182
   si1_1   Si     0.958963     0.465215     0.519050
   si1_1   Si     0.948387     0.497033     0.521115
   si1_1   Si     0.932540     0.505433     0.492710
   si1_1   Si     0.921963     0.537251     0.494776
   si1_1   Si     0.974769     0.517332     0.525643
   si1_1   Si     0.964192     0.549150     0.527709
   si1_1   Si     0.927274     0.500154     0.547059
   si1_1   Si     0.916698     0.531972     0.549125
   si1_1   Si     0.969503     0.512053     0.579992
   si1_1   Si     0.958926     0.543871     0.582058
   si1_1   Si     0.943080     0.552270     0.553653
   si1_1   Si     0.932503     0.584089     0.555718
   si1_1   Si     0.985308     0.564169     0.586586
   si1_1   Si     0.974732     0.595988     0.588652
   si1_1   Si     0.937814     0.546991     0.608002
   si1_1   Si     0.927237     0.578810     0.610068
   si1_1   Si     0.811161     0.414499     0.361373
   si1_1   Si     0.853390     0.426398     0.394306
   si1_1   Si     0.837543     0.434797     0.365901
   si1_1   Si     0.826966     0.466615     0.367967
   si1_1   Si     0.879772     0.446696     0.398834
   si1_1   Si     0.869195     0.478514     0.400900
   si1_1   Si     0.832277     0.429518     0.420250
   si1_1   Si     0.821701     0.461336     0.422316
   si1_1   Si     0.874506     0.441417     0.453183
   si1_1   Si     0.863929     0.473235     0.455249
   si1_1   Si     0.848083     0.481635     0.426843
   si1_1   Si     0.837506     0.513453     0.428909
   si1_1   Si     0.890311     0.493534     0.459777
   si1_1   Si     0.879735     0.525352     0.461842
   si1_1   Si     0.842817     0.476356     0.481193
   si1_1   Si     0.832240     0.508174     0.483259
   si1_1   Si     0.885046     0.488255     0.514126
   si1_1   Si     0.874469     0.520073     0.516192
   si1_1   Si     0.858623     0.528472     0.487786
   si1_1   Si     0.848046     0.560291     0.489852
   si1_1   Si     0.900851     0.540371     0.520719
   si1_1   Si     0.890275     0.572190     0.522785
   si1_1   Si     0.853357     0.523193     0.542135
   si1_1   Si     0.842780     0.555012     0.544201
   si1_1   Si     0.895585     0.535092     0.575069
   si1_1   Si     0.885009     0.566911     0.577135
   si1_1   Si     0.869162     0.575310     0.548729
   si1_1   Si     0.858586     0.607129     0.550795
   si1_1   Si     0.911391     0.587209     0.581662
   si1_1   Si     0.900814     0.619027     0.583728
   si1_1   Si     0.863897     0.570031     0.603078
   si1_1   Si     0.853320     0.601850     0.605144
   si1_1   Si     0.906125     0.581930     0.636011
   si1_1   Si     0.895549     0.613748     0.638077
   si1_1   Si     0.879702     0.622148     0.609672
   si1_1   Si     0.869125     0.653966     0.611738
   si1_1   Si     0.795314     0.422898     0.332967
   si1_1   Si     0.784738     0.454716     0.335033
   si1_1   Si     0.779472     0.449437     0.389383
   si1_1   Si     0.763626     0.457837     0.360977
   si1_1   Si     0.753049     0.489655     0.363043
   si1_1   Si     0.805854     0.469736     0.393910
   si1_1   Si     0.795278     0.501554     0.395976
   si1_1   Si     0.747783     0.484376     0.417392
   si1_1   Si     0.800589     0.464457     0.448259
   si1_1   Si     0.790012     0.496275     0.450325
   si1_1   Si     0.774165     0.504675     0.421920
   si1_1   Si     0.763589     0.536493     0.423986
   si1_1   Si     0.816394     0.516574     0.454853
   si1_1   Si     0.805817     0.548392     0.456919
   si1_1   Si     0.768900     0.499396     0.476269
   si1_1   Si     0.758323     0.531214     0.478335
   si1_1   Si     0.811128     0.511295     0.509202
   si1_1   Si     0.800552     0.543113     0.511268
   si1_1   Si     0.784705     0.551512     0.482862
   si1_1   Si     0.774128     0.583331     0.484928
   si1_1   Si     0.826934     0.563411     0.515796
   si1_1   Si     0.816357     0.595230     0.517862
   si1_1   Si     0.779439     0.546233     0.537212
   si1_1   Si     0.768863     0.578052     0.539278
   si1_1   Si     0.821668     0.558132     0.570145
   si1_1   Si     0.811091     0.589951     0.572211
   si1_1   Si     0.795245     0.598350     0.543805
   si1_1   Si     0.784668     0.630168     0.545871
   si1_1   Si     0.837473     0.610249     0.576738
   si1_1   Si     0.826897     0.642067     0.578804
   si1_1   Si     0.789979     0.593071     0.598155
   si1_1   Si     0.779402     0.624889     0.600220
   si1_1   Si     0.832208     0.604970     0.631088
   si1_1   Si     0.821631     0.636788     0.633154
   si1_1   Si     0.805785     0.645188     0.604748
   si1_1   Si     0.795208     0.677006     0.606814
   si1_1   Si     0.848013     0.657087     0.637681
   si1_1   Si     0.837437     0.688905     0.639747
   si1_1   Si     0.800519     0.639909     0.659097
   si1_1   Si     0.789942     0.671727     0.661163
   si1_1   Si     0.816324     0.692026     0.665691
   si1_1   Si     0.710820     0.477756     0.330110
   si1_1   Si     0.679131     0.512695     0.358119
   si1_1   Si     0.731937     0.492776     0.388987
   si1_1   Si     0.721360     0.524594     0.391052
   si1_1   Si     0.716094     0.519315     0.445402
   si1_1   Si     0.700248     0.527715     0.416996
   si1_1   Si     0.689671     0.559533     0.419062
   si1_1   Si     0.742476     0.539613     0.449929
   si1_1   Si     0.731900     0.571432     0.451995
   si1_1   Si     0.684405     0.554254     0.473411
   si1_1   Si     0.737211     0.534334     0.504279
   si1_1   Si     0.726634     0.566153     0.506344
   si1_1   Si     0.710788     0.574552     0.477939
   si1_1   Si     0.700211     0.606371     0.480005
   si1_1   Si     0.753016     0.586451     0.510872
   si1_1   Si     0.742440     0.618270     0.512938
   si1_1   Si     0.705522     0.569273     0.532288
   si1_1   Si     0.694945     0.601092     0.534354
   si1_1   Si     0.747750     0.581172     0.565221
   si1_1   Si     0.737174     0.612991     0.567287
   si1_1   Si     0.721327     0.621390     0.538882
   si1_1   Si     0.710751     0.653208     0.540947
   si1_1   Si     0.763556     0.633289     0.571815
   si1_1   Si     0.752979     0.665107     0.573881
   si1_1   Si     0.716062     0.616111     0.593231
   si1_1   Si     0.705485     0.647929     0.595297
   si1_1   Si     0.758290     0.628010     0.626164
   si1_1   Si     0.747714     0.659828     0.628230
   si1_1   Si     0.731867     0.668228     0.599824
   si1_1   Si     0.774096     0.680127     0.632758
   si1_1   Si     0.647443     0.547634     0.386129
   si1_1   Si     0.615754     0.582573     0.414138
   si1_1   Si     0.668559     0.562653     0.445006
   si1_1   Si     0.657982     0.594472     0.447071
   si1_1   Si     0.652717     0.589193     0.501421
   si1_1   Si     0.636870     0.597592     0.473015
   si1_1   Si     0.626293     0.629410     0.475081
   si1_1   Si     0.679099     0.609491     0.505948
   si1_1   Si     0.668522     0.641309     0.508014
   si1_1   Si     0.673833     0.604212     0.560298
   si1_1   Si     0.663256     0.636030     0.562363
   si1_1   Si     0.647410     0.644430     0.533958
   si1_1   Si     0.689638     0.656329     0.566891
   si1_1   Si     0.584065     0.617512     0.442148
   si1_1   Si     0.605181     0.632531     0.501025
   si1_1   Si     0.916689     0.495692     0.379484
   si1_1   Si     0.958918     0.507591     0.412417
   si1_1   Si     0.943071     0.515991     0.384011
   si1_1   Si     0.932495     0.547809     0.386077
   si1_1   Si     0.985300     0.527890     0.416945
   si1_1   Si     0.974723     0.559708     0.419010
   si1_1   Si     0.937806     0.510712     0.438361
   si1_1   Si     0.927229     0.542530     0.440426
   si1_1   Si     0.980034     0.522611     0.471294
   si1_1   Si     0.969458     0.554429     0.473360
   si1_1   Si     0.953611     0.562828     0.444954
   si1_1   Si     0.943035     0.594647     0.447020
   si1_1   Si     0.995840     0.574727     0.477887
   si1_1   Si     0.985263     0.606546     0.479953
   si1_1   Si     0.948346     0.557549     0.499303
   si1_1   Si     0.937769     0.589368     0.501369
   si1_1   Si     0.990574     0.569448     0.532237
   si1_1   Si     0.979997     0.601267     0.534302
   si1_1   Si     0.964151     0.609666     0.505897
   si1_1   Si     0.953574     0.641484     0.507963
   si1_1   Si     0.995803     0.653383     0.540896
   si1_1   Si     0.958885     0.604387     0.560246
   si1_1   Si     0.948309     0.636205     0.562312
   si1_1   Si     0.974691     0.656504     0.566840
   si1_1   Si     0.964114     0.688322     0.568905
   si1_1   Si     0.832232     0.471894     0.313617
   si1_1   Si     0.874461     0.483793     0.346550
   si1_1   Si     0.858614     0.492193     0.318145
   si1_1   Si     0.848038     0.524011     0.320211
   si1_1   Si     0.900843     0.504092     0.351078
   si1_1   Si     0.890266     0.535910     0.353144
   si1_1   Si     0.853349     0.486914     0.372494
   si1_1   Si     0.842772     0.518732     0.374560
   si1_1   Si     0.895577     0.498813     0.405427
   si1_1   Si     0.885000     0.530631     0.407493
   si1_1   Si     0.869154     0.539030     0.379088
   si1_1   Si     0.858577     0.570849     0.381153
   si1_1   Si     0.911383     0.550929     0.412021
   si1_1   Si     0.900806     0.582748     0.414087
   si1_1   Si     0.863888     0.533751     0.433437
   si1_1   Si     0.853312     0.565570     0.435503
   si1_1   Si     0.906117     0.545650     0.466370
   si1_1   Si     0.895540     0.577469     0.468436
   si1_1   Si     0.879694     0.585868     0.440030
   si1_1   Si     0.869117     0.617687     0.442096
   si1_1   Si     0.921922     0.597767     0.472964
   si1_1   Si     0.911346     0.629585     0.475029
   si1_1   Si     0.874428     0.580589     0.494380
   si1_1   Si     0.863851     0.612408     0.496445
   si1_1   Si     0.916657     0.592488     0.527313
   si1_1   Si     0.906080     0.624306     0.529379
   si1_1   Si     0.890233     0.632706     0.500973
   si1_1   Si     0.879657     0.664524     0.503039
   si1_1   Si     0.932462     0.644605     0.533906
   si1_1   Si     0.921885     0.676423     0.535972
   si1_1   Si     0.884968     0.627427     0.555322
   si1_1   Si     0.874391     0.659245     0.557388
   si1_1   Si     0.927196     0.639326     0.588256
   si1_1   Si     0.916620     0.671144     0.590321
   si1_1   Si     0.900773     0.679544     0.561916
   si1_1   Si     0.890197     0.711362     0.563982
   si1_1   Si     0.943002     0.691443     0.594849
   si1_1   Si     0.932425     0.723261     0.596915
   si1_1   Si     0.895507     0.674265     0.616265
   si1_1   Si     0.884931     0.706083     0.618331
   si1_1   Si     0.790003     0.459995     0.280684
   si1_1   Si     0.774157     0.468395     0.252278
   si1_1   Si     0.763580     0.500213     0.254344
   si1_1   Si     0.816386     0.480294     0.285212
   si1_1   Si     0.805809     0.512112     0.287277
   si1_1   Si     0.768891     0.463116     0.306628
   si1_1   Si     0.758315     0.494934     0.308694
   si1_1   Si     0.811120     0.475015     0.339561
   si1_1   Si     0.800543     0.506833     0.341627
   si1_1   Si     0.784697     0.515233     0.313221
   si1_1   Si     0.774120     0.547051     0.315287
   si1_1   Si     0.826925     0.527132     0.346154
   si1_1   Si     0.816349     0.558950     0.348220
   si1_1   Si     0.779431     0.509954     0.367570
   si1_1   Si     0.768854     0.541772     0.369636
   si1_1   Si     0.821660     0.521853     0.400504
   si1_1   Si     0.811083     0.553671     0.402570
   si1_1   Si     0.795236     0.562070     0.374164
   si1_1   Si     0.784660     0.593889     0.376230
   si1_1   Si     0.837465     0.573969     0.407097
   si1_1   Si     0.826888     0.605788     0.409163
   si1_1   Si     0.789971     0.556791     0.428513
   si1_1   Si     0.779394     0.588610     0.430579
   si1_1   Si     0.832199     0.568690     0.461446
   si1_1   Si     0.821623     0.600509     0.463512
   si1_1   Si     0.805776     0.608908     0.435107
   si1_1   Si     0.795200     0.640726     0.437173
   si1_1   Si     0.848005     0.620807     0.468040
   si1_1   Si     0.837428     0.652625     0.470106
   si1_1   Si     0.800511     0.603629     0.489456
   si1_1   Si     0.789934     0.635447     0.491522
   si1_1   Si     0.842739     0.615528     0.522389
   si1_1   Si     0.832162     0.647346     0.524455
   si1_1   Si     0.816316     0.655746     0.496049
   si1_1   Si     0.805739     0.687564     0.498115
   si1_1   Si     0.858545     0.667645     0.528983
   si1_1   Si     0.847968     0.699463     0.531049
   si1_1   Si     0.811050     0.650467     0.550399
   si1_1   Si     0.800474     0.682285     0.552465
   si1_1   Si     0.853279     0.662366     0.583332
   si1_1   Si     0.842702     0.694184     0.585398
   si1_1   Si     0.826856     0.702584     0.556992
   si1_1   Si     0.816279     0.734402     0.559058
   si1_1   Si     0.869084     0.714482     0.589925
   si1_1   Si     0.858508     0.746301     0.591991
   si1_1   Si     0.821590     0.697305     0.611341
   si1_1   Si     0.811013     0.729123     0.613407
   si1_1   Si     0.863819     0.709203     0.644275
   si1_1   Si     0.853242     0.741022     0.646341
   si1_1   Si     0.837395     0.749421     0.617935
   si1_1   Si     0.826819     0.781240     0.620001
   si1_1   Si     0.689663     0.523253     0.249421
   si1_1   Si     0.742468     0.503334     0.280288
   si1_1   Si     0.731891     0.535152     0.282354
   si1_1   Si     0.684397     0.517974     0.303770
   si1_1   Si     0.737202     0.498055     0.334637
   si1_1   Si     0.726626     0.529873     0.336703
   si1_1   Si     0.710779     0.538273     0.308297
   si1_1   Si     0.700203     0.570091     0.310363
   si1_1   Si     0.753008     0.550171     0.341231
   si1_1   Si     0.742431     0.581990     0.343297
   si1_1   Si     0.705514     0.532994     0.362647
   si1_1   Si     0.694937     0.564812     0.364713
   si1_1   Si     0.747742     0.544892     0.395580
   si1_1   Si     0.737165     0.576711     0.397646
   si1_1   Si     0.721319     0.585110     0.369240
   si1_1   Si     0.710742     0.616929     0.371306
   si1_1   Si     0.763548     0.597009     0.402173
   si1_1   Si     0.752971     0.628827     0.404239
   si1_1   Si     0.716053     0.579831     0.423590
   si1_1   Si     0.705477     0.611650     0.425655
   si1_1   Si     0.758282     0.591730     0.456523
   si1_1   Si     0.747705     0.623548     0.458589
   si1_1   Si     0.731859     0.631948     0.430183
   si1_1   Si     0.721282     0.663766     0.432249
   si1_1   Si     0.774087     0.643847     0.463116
   si1_1   Si     0.763511     0.675665     0.465182
   si1_1   Si     0.726593     0.626669     0.484532
   si1_1   Si     0.716016     0.658487     0.486598
   si1_1   Si     0.768822     0.638568     0.517466
   si1_1   Si     0.758245     0.670386     0.519531
   si1_1   Si     0.742398     0.678786     0.491126
   si1_1   Si     0.731822     0.710604     0.493192
   si1_1   Si     0.784627     0.690685     0.524059
   si1_1   Si     0.774050     0.722503     0.526125
   si1_1   Si     0.737133     0.673507     0.545475
   si1_1   Si     0.726556     0.705325     0.547541
   si1_1   Si     0.779361     0.685406     0.578408
   si1_1   Si     0.768785     0.717224     0.580474
   si1_1   Si     0.752938     0.725623     0.552068
   si1_1   Si     0.742362     0.757442     0.554134
   si1_1   Si     0.795167     0.737522     0.585002
   si1_1   Si     0.784590     0.769341     0.587068
   si1_1   Si     0.668551     0.526374     0.275364
   si1_1   Si     0.657974     0.558192     0.277430
   si1_1   Si     0.663285     0.521095     0.329714
   si1_1   Si     0.652708     0.552913     0.331779
   si1_1   Si     0.636862     0.561312     0.303374
   si1_1   Si     0.626285     0.593131     0.305440
   si1_1   Si     0.679090     0.573211     0.336307
   si1_1   Si     0.668514     0.605030     0.338373
   si1_1   Si     0.631596     0.556033     0.357723
   si1_1   Si     0.621019     0.587852     0.359789
   si1_1   Si     0.673825     0.567932     0.390656
   si1_1   Si     0.663248     0.599751     0.392722
   si1_1   Si     0.647401     0.608150     0.364317
   si1_1   Si     0.636825     0.639968     0.366382
   si1_1   Si     0.689630     0.620049     0.397250
   si1_1   Si     0.679053     0.651867     0.399316
   si1_1   Si     0.642136     0.602871     0.418666
   si1_1   Si     0.631559     0.634689     0.420732
   si1_1   Si     0.684364     0.614770     0.451599
   si1_1   Si     0.673788     0.646588     0.453665
   si1_1   Si     0.657941     0.654988     0.425259
   si1_1   Si     0.647365     0.686806     0.427325
   si1_1   Si     0.700170     0.666887     0.458193
   si1_1   Si     0.689593     0.698705     0.460258
   si1_1   Si     0.652675     0.649709     0.479609
   si1_1   Si     0.642099     0.681527     0.481674
   si1_1   Si     0.694904     0.661608     0.512542
   si1_1   Si     0.684327     0.693426     0.514608
   si1_1   Si     0.668481     0.701826     0.486202
   si1_1   Si     0.710710     0.713725     0.519135
   si1_1   Si     0.700133     0.745543     0.521201
   si1_1   Si     0.584056     0.581232     0.272506
   si1_1   Si     0.578791     0.575953     0.326856
   si1_1   Si     0.562944     0.584352     0.298450
   si1_1   Si     0.605173     0.596251     0.331383
   si1_1   Si     0.594596     0.628070     0.333449
   si1_1   Si     0.557678     0.579073     0.352799
   si1_1   Si     0.599907     0.590972     0.385733
   si1_1   Si     0.589330     0.622791     0.387798
   si1_1   Si     0.573484     0.631190     0.359393
   si1_1   Si     0.615713     0.643089     0.392326
   si1_1   Si     0.605136     0.674907     0.394392
   si1_1   Si     0.568218     0.625911     0.413742
   si1_1   Si     0.610447     0.637810     0.446675
   si1_1   Si     0.599870     0.669628     0.448741
   si1_1   Si     0.584024     0.678028     0.420336
   si1_1   Si     0.626252     0.689927     0.453269
   si1_1   Si     0.937761     0.553088     0.331728
   si1_1   Si     0.979989     0.564987     0.364661
   si1_1   Si     0.964143     0.573386     0.336256
   si1_1   Si     0.953566     0.605205     0.338321
   si1_1   Si     0.995795     0.617104     0.371255
   si1_1   Si     0.958877     0.568107     0.390605
   si1_1   Si     0.948300     0.599926     0.392671
   si1_1   Si     0.990529     0.611825     0.425604
   si1_1   Si     0.974682     0.620224     0.397198
   si1_1   Si     0.964106     0.652042     0.399264
   si1_1   Si     0.969417     0.614945     0.451548
   si1_1   Si     0.958840     0.646763     0.453613
   si1_1   Si     0.985222     0.667062     0.458141
   si1_1   Si     0.974645     0.698880     0.460207
   si1_1   Si     0.979956     0.661783     0.512490
   si1_1   Si     0.969380     0.693601     0.514556
   si1_1   Si     0.995762     0.713899     0.519084
   si1_1   Si     0.985185     0.745718     0.521150
   si1_1   Si     0.853303     0.529290     0.265861
   si1_1   Si     0.895532     0.541189     0.298795
   si1_1   Si     0.879685     0.549588     0.270389
   si1_1   Si     0.869109     0.581407     0.272455
   si1_1   Si     0.921914     0.561487     0.303322
   si1_1   Si     0.911337     0.593306     0.305388
   si1_1   Si     0.874420     0.544309     0.324738
   si1_1   Si     0.863843     0.576128     0.326804
   si1_1   Si     0.916648     0.556208     0.357672
   si1_1   Si     0.906072     0.588027     0.359737
   si1_1   Si     0.890225     0.596426     0.331332
   si1_1   Si     0.879648     0.628245     0.333398
   si1_1   Si     0.932454     0.608325     0.364265
   si1_1   Si     0.921877     0.640143     0.366331
   si1_1   Si     0.884959     0.591147     0.385681
   si1_1   Si     0.874383     0.622966     0.387747
   si1_1   Si     0.927188     0.603046     0.418614
   si1_1   Si     0.916611     0.634864     0.420680
   si1_1   Si     0.900765     0.643264     0.392275
   si1_1   Si     0.890188     0.675082     0.394340
   si1_1   Si     0.942993     0.655163     0.425208
   si1_1   Si     0.932417     0.686981     0.427274
   si1_1   Si     0.895499     0.637985     0.446624
   si1_1   Si     0.884922     0.669803     0.448690
   si1_1   Si     0.937728     0.649884     0.479557
   si1_1   Si     0.927151     0.681702     0.481623
   si1_1   Si     0.911305     0.690102     0.453217
   si1_1   Si     0.900728     0.721920     0.455283
   si1_1   Si     0.953533     0.702001     0.486151
   si1_1   Si     0.942957     0.733819     0.488216
   si1_1   Si     0.906039     0.684823     0.507567
   si1_1   Si     0.895462     0.716641     0.509632
   si1_1   Si     0.948268     0.696722     0.540500
   si1_1   Si     0.937691     0.728540     0.542566
   si1_1   Si     0.921844     0.736939     0.514160
   si1_1   Si     0.911268     0.768758     0.516226
   si1_1   Si     0.964073     0.748838     0.547093
   si1_1   Si     0.953496     0.780657     0.549159
   si1_1   Si     0.916579     0.731660     0.568509
   si1_1   Si     0.906002     0.763479     0.570575
   si1_1   Si     0.932384     0.783777     0.575103
   si1_1   Si     0.921807     0.815595     0.577169
   si1_1   Si     0.768846     0.505492     0.199995
   si1_1   Si     0.811075     0.517391     0.232928
   si1_1   Si     0.795228     0.525791     0.204523
   si1_1   Si     0.784651     0.557609     0.206588
   si1_1   Si     0.837457     0.537690     0.237456
   si1_1   Si     0.826880     0.569508     0.239522
   si1_1   Si     0.789962     0.520512     0.258872
   si1_1   Si     0.779386     0.552330     0.260938
   si1_1   Si     0.832191     0.532411     0.291805
   si1_1   Si     0.821614     0.564229     0.293871
   si1_1   Si     0.805768     0.572628     0.265465
   si1_1   Si     0.795191     0.604447     0.267531
   si1_1   Si     0.847996     0.584527     0.298399
   si1_1   Si     0.837420     0.616346     0.300464
   si1_1   Si     0.800502     0.567349     0.319815
   si1_1   Si     0.789925     0.599168     0.321880
   si1_1   Si     0.842731     0.579248     0.352748
   si1_1   Si     0.832154     0.611067     0.354814
   si1_1   Si     0.816308     0.619466     0.326408
   si1_1   Si     0.805731     0.651284     0.328474
   si1_1   Si     0.858536     0.631365     0.359341
   si1_1   Si     0.847960     0.663183     0.361407
   si1_1   Si     0.811042     0.614187     0.380757
   si1_1   Si     0.800465     0.646005     0.382823
   si1_1   Si     0.853271     0.626086     0.413691
   si1_1   Si     0.842694     0.657904     0.415756
   si1_1   Si     0.826847     0.666304     0.387351
   si1_1   Si     0.816271     0.698122     0.389417
   si1_1   Si     0.869076     0.678203     0.420284
   si1_1   Si     0.858499     0.710021     0.422350
   si1_1   Si     0.821582     0.661025     0.441700
   si1_1   Si     0.811005     0.692843     0.443766
   si1_1   Si     0.863810     0.672924     0.474633
   si1_1   Si     0.853234     0.704742     0.476699
   si1_1   Si     0.837387     0.713142     0.448294
   si1_1   Si     0.826810     0.744960     0.450359
   si1_1   Si     0.879616     0.725040     0.481227
   si1_1   Si     0.869039     0.756859     0.483293
   si1_1   Si     0.832121     0.707863     0.502643
   si1_1   Si     0.821545     0.739681     0.504709
   si1_1   Si     0.874350     0.719761     0.535576
   si1_1   Si     0.863773     0.751580     0.537642
   si1_1   Si     0.847927     0.759979     0.509236
   si1_1   Si     0.837350     0.791798     0.511302
   si1_1   Si     0.890155     0.771878     0.542170
   si1_1   Si     0.879579     0.803697     0.544235
   si1_1   Si     0.842661     0.754700     0.563586
   si1_1   Si     0.832084     0.786519     0.565651
   si1_1   Si     0.884890     0.766599     0.596519
   si1_1   Si     0.874313     0.798418     0.598585
   si1_1   Si     0.858467     0.806817     0.570179
   si1_1   Si     0.847890     0.838635     0.572245
   si1_1   Si     0.900695     0.818716     0.603112
   si1_1   Si     0.853201     0.801538     0.624528
   si1_1   Si     0.742423     0.545710     0.173655
   si1_1   Si     0.747734     0.508613     0.225939
   si1_1   Si     0.737157     0.540431     0.228004
   si1_1   Si     0.721311     0.548831     0.199599
   si1_1   Si     0.710734     0.580649     0.201665
   si1_1   Si     0.763539     0.560729     0.232532
   si1_1   Si     0.752963     0.592548     0.234598
   si1_1   Si     0.716045     0.543552     0.253948
   si1_1   Si     0.705468     0.575370     0.256014
   si1_1   Si     0.758274     0.555450     0.286881
   si1_1   Si     0.747697     0.587269     0.288947
   si1_1   Si     0.731850     0.595668     0.260542
   si1_1   Si     0.721274     0.627487     0.262607
   si1_1   Si     0.774079     0.607567     0.293475
   si1_1   Si     0.763502     0.639386     0.295541
   si1_1   Si     0.726585     0.590389     0.314891
   si1_1   Si     0.716008     0.622208     0.316957
   si1_1   Si     0.768813     0.602288     0.347824
   si1_1   Si     0.758237     0.634107     0.349890
   si1_1   Si     0.742390     0.642506     0.321484
   si1_1   Si     0.731813     0.674324     0.323550
   si1_1   Si     0.784619     0.654405     0.354418
   si1_1   Si     0.774042     0.686223     0.356483
   si1_1   Si     0.737124     0.637227     0.375834
   si1_1   Si     0.726548     0.669045     0.377900
   si1_1   Si     0.779353     0.649126     0.408767
   si1_1   Si     0.768776     0.680944     0.410833
   si1_1   Si     0.752930     0.689344     0.382427
   si1_1   Si     0.742353     0.721162     0.384493
   si1_1   Si     0.795158     0.701243     0.415360
   si1_1   Si     0.784582     0.733061     0.417426
   si1_1   Si     0.747664     0.684065     0.436776
   si1_1   Si     0.737087     0.715883     0.438842
   si1_1   Si     0.789893     0.695964     0.469710
   si1_1   Si     0.779316     0.727782     0.471776
   si1_1   Si     0.763470     0.736181     0.443370
   si1_1   Si     0.752893     0.768000     0.445436
   si1_1   Si     0.805698     0.748080     0.476303
   si1_1   Si     0.795122     0.779899     0.478369
   si1_1   Si     0.758204     0.730902     0.497719
   si1_1   Si     0.747627     0.762721     0.499785
   si1_1   Si     0.800432     0.742801     0.530652
   si1_1   Si     0.789856     0.774620     0.532718
   si1_1   Si     0.774009     0.783019     0.504313
   si1_1   Si     0.763433     0.814837     0.506379
   si1_1   Si     0.816238     0.794918     0.537246
   si1_1   Si     0.805661     0.826736     0.539312
   si1_1   Si     0.768744     0.777740     0.558662
   si1_1   Si     0.810972     0.789639     0.591595
   si1_1   Si     0.663240     0.563471     0.223081
   si1_1   Si     0.636816     0.603689     0.196741
   si1_1   Si     0.689622     0.583769     0.227608
   si1_1   Si     0.679045     0.615588     0.229674
   si1_1   Si     0.642127     0.566591     0.249025
   si1_1   Si     0.631551     0.598410     0.251090
   si1_1   Si     0.684356     0.578490     0.281958
   si1_1   Si     0.673779     0.610309     0.284024
   si1_1   Si     0.657933     0.618708     0.255618
   si1_1   Si     0.647356     0.650526     0.257684
   si1_1   Si     0.700161     0.630607     0.288551
   si1_1   Si     0.689585     0.662425     0.290617
   si1_1   Si     0.652667     0.613429     0.309967
   si1_1   Si     0.642090     0.645247     0.312033
   si1_1   Si     0.694896     0.625328     0.342900
   si1_1   Si     0.684319     0.657146     0.344966
   si1_1   Si     0.668473     0.665546     0.316561
   si1_1   Si     0.657896     0.697364     0.318627
   si1_1   Si     0.710701     0.677445     0.349494
   si1_1   Si     0.700125     0.709263     0.351560
   si1_1   Si     0.663207     0.660267     0.370910
   si1_1   Si     0.652630     0.692085     0.372976
   si1_1   Si     0.705435     0.672166     0.403843
   si1_1   Si     0.694859     0.703984     0.405909
   si1_1   Si     0.679012     0.712384     0.377503
   si1_1   Si     0.668436     0.744202     0.379569
   si1_1   Si     0.721241     0.724283     0.410437
   si1_1   Si     0.710664     0.756101     0.412503
   si1_1   Si     0.673747     0.707105     0.431853
   si1_1   Si     0.663170     0.738923     0.433919
   si1_1   Si     0.715975     0.719004     0.464786
   si1_1   Si     0.705399     0.750822     0.466852
   si1_1   Si     0.689552     0.759221     0.438446
   si1_1   Si     0.678975     0.791040     0.440512
   si1_1   Si     0.731781     0.771120     0.471379
   si1_1   Si     0.721204     0.802939     0.473445
   si1_1   Si     0.684286     0.753942     0.492796
   si1_1   Si     0.726515     0.765841     0.525729
   si1_1   Si     0.615704     0.606809     0.222685
   si1_1   Si     0.605128     0.638628     0.224751
   si1_1   Si     0.610439     0.601530     0.277034
   si1_1   Si     0.599862     0.633349     0.279100
   si1_1   Si     0.584015     0.641748     0.250694
   si1_1   Si     0.626244     0.653647     0.283627
   si1_1   Si     0.615667     0.685465     0.285693
   si1_1   Si     0.578750     0.636469     0.305044
   si1_1   Si     0.620978     0.648368     0.337977
   si1_1   Si     0.610402     0.680186     0.340043
   si1_1   Si     0.594555     0.688586     0.311637
   si1_1   Si     0.636784     0.700485     0.344570
   si1_1   Si     0.626207     0.732303     0.346636
   si1_1   Si     0.589289     0.683307     0.365986
   si1_1   Si     0.631518     0.695206     0.398920
   si1_1   Si     0.620941     0.727024     0.400985
   si1_1   Si     0.605095     0.735423     0.372580
   si1_1   Si     0.647323     0.747322     0.405513
   si1_1   Si     0.636747     0.779141     0.407579
   si1_1   Si     0.990488     0.672341     0.403792
   si1_1   Si     0.990451     0.750997     0.466800
   si1_1   Si     0.895491     0.601705     0.276983
   si1_1   Si     0.937719     0.613604     0.309916
   si1_1   Si     0.906031     0.648543     0.337925
   si1_1   Si     0.895454     0.680361     0.339991
   si1_1   Si     0.948259     0.660442     0.370859
   si1_1   Si     0.937683     0.692260     0.372924
   si1_1   Si     0.916570     0.695381     0.398868
   si1_1   Si     0.905994     0.727199     0.400934
   si1_1   Si     0.958799     0.707280     0.431801
   si1_1   Si     0.948222     0.739098     0.433867
   si1_1   Si     0.927110     0.742218     0.459811
   si1_1   Si     0.916533     0.774037     0.461877
   si1_1   Si     0.969339     0.754117     0.492744
   si1_1   Si     0.958762     0.785936     0.494810
   si1_1   Si     0.942915     0.794335     0.466404
   si1_1   Si     0.937650     0.789056     0.520754
   si1_1   Si     0.927073     0.820874     0.522819
   si1_1   Si     0.979878     0.800955     0.553687
   si1_1   Si     0.969302     0.832773     0.555753
   si1_1   Si     0.953455     0.841173     0.527347
   si1_1   Si     0.811034     0.577907     0.211116
   si1_1   Si     0.800457     0.609726     0.213182
   si1_1   Si     0.853262     0.589806     0.244049
   si1_1   Si     0.842686     0.621625     0.246115
   si1_1   Si     0.821573     0.624745     0.272059
   si1_1   Si     0.810997     0.656563     0.274125
   si1_1   Si     0.863802     0.636644     0.304992
   si1_1   Si     0.853225     0.668462     0.307058
   si1_1   Si     0.832113     0.671583     0.333002
   si1_1   Si     0.821536     0.703401     0.335067
   si1_1   Si     0.874342     0.683482     0.365935
   si1_1   Si     0.863765     0.715300     0.368001
   si1_1   Si     0.847918     0.723700     0.339595
   si1_1   Si     0.890147     0.735598     0.372528
   si1_1   Si     0.842653     0.718421     0.393944
   si1_1   Si     0.832076     0.750239     0.396010
   si1_1   Si     0.884881     0.730319     0.426878
   si1_1   Si     0.874305     0.762138     0.428943
   si1_1   Si     0.858458     0.770537     0.400538
   si1_1   Si     0.847882     0.802356     0.402604
   si1_1   Si     0.900687     0.782436     0.433471
   si1_1   Si     0.853193     0.765258     0.454887
   si1_1   Si     0.842616     0.797077     0.456953
   si1_1   Si     0.895421     0.777157     0.487820
   si1_1   Si     0.884845     0.808976     0.489886
   si1_1   Si     0.868998     0.817375     0.461481
   si1_1   Si     0.858421     0.849193     0.463546
   si1_1   Si     0.911227     0.829274     0.494414
   si1_1   Si     0.900650     0.861092     0.496480
   si1_1   Si     0.863732     0.812096     0.515830
   si1_1   Si     0.853156     0.843914     0.517896
   si1_1   Si     0.905961     0.823995     0.548763
   si1_1   Si     0.895384     0.855813     0.550829
   si1_1   Si     0.879538     0.864213     0.522423
   si1_1   Si     0.874272     0.858934     0.576773
   si1_1   Si     0.747689     0.550989     0.119306
   si1_1   Si     0.726576     0.554110     0.145250
   si1_1   Si     0.716000     0.585928     0.147315
   si1_1   Si     0.768805     0.566008     0.178183
   si1_1   Si     0.758228     0.597827     0.180249
   si1_1   Si     0.737116     0.600947     0.206192
   si1_1   Si     0.726539     0.632766     0.208258
   si1_1   Si     0.779345     0.612846     0.239126
   si1_1   Si     0.768768     0.644664     0.241191
   si1_1   Si     0.752921     0.653064     0.212786
   si1_1   Si     0.795150     0.664963     0.245719
   si1_1   Si     0.747656     0.647785     0.267135
   si1_1   Si     0.737079     0.679603     0.269201
   si1_1   Si     0.789884     0.659684     0.300068
   si1_1   Si     0.779308     0.691502     0.302134
   si1_1   Si     0.763461     0.699902     0.273729
   si1_1   Si     0.752885     0.731720     0.275794
   si1_1   Si     0.805690     0.711801     0.306662
   si1_1   Si     0.795113     0.743619     0.308728
   si1_1   Si     0.758196     0.694623     0.328078
   si1_1   Si     0.747619     0.726441     0.330144
   si1_1   Si     0.800424     0.706522     0.361011
   si1_1   Si     0.789848     0.738340     0.363077
   si1_1   Si     0.774001     0.746739     0.334671
   si1_1   Si     0.763424     0.778558     0.336737
   si1_1   Si     0.816230     0.758638     0.367605
   si1_1   Si     0.805653     0.790457     0.369670
   si1_1   Si     0.768735     0.741460     0.389021
   si1_1   Si     0.758159     0.773279     0.391086
   si1_1   Si     0.810964     0.753359     0.421954
   si1_1   Si     0.800387     0.785178     0.424020
   si1_1   Si     0.784541     0.793577     0.395614
   si1_1   Si     0.773964     0.825395     0.397680
   si1_1   Si     0.826769     0.805476     0.428547
   si1_1   Si     0.816193     0.837294     0.430613
   si1_1   Si     0.779275     0.788298     0.449963
   si1_1   Si     0.768698     0.820116     0.452029
   si1_1   Si     0.821504     0.800197     0.482897
   si1_1   Si     0.810927     0.832015     0.484962
   si1_1   Si     0.795080     0.840415     0.456557
   si1_1   Si     0.784504     0.872233     0.458623
   si1_1   Si     0.837309     0.852314     0.489490
   si1_1   Si     0.826732     0.884132     0.491556
   si1_1   Si     0.789815     0.835136     0.510906
   si1_1   Si     0.779238     0.866954     0.512972
   si1_1   Si     0.832043     0.847035     0.543839
   si1_1   Si     0.821467     0.878853     0.545905
   si1_1   Si     0.805620     0.887253     0.517500
   si1_1   Si     0.700153     0.594327     0.118910
   si1_1   Si     0.642082     0.608968     0.142392
   si1_1   Si     0.694887     0.589048     0.173259
   si1_1   Si     0.684311     0.620867     0.175325
   si1_1   Si     0.668464     0.629266     0.146919
   si1_1   Si     0.657888     0.661084     0.148985
   si1_1   Si     0.710693     0.641165     0.179853
   si1_1   Si     0.663199     0.623987     0.201269
   si1_1   Si     0.652622     0.655805     0.203335
   si1_1   Si     0.705427     0.635886     0.234202
   si1_1   Si     0.694851     0.667704     0.236268
   si1_1   Si     0.679004     0.676104     0.207862
   si1_1   Si     0.668427     0.707922     0.209928
   si1_1   Si     0.721233     0.688003     0.240795
   si1_1   Si     0.710656     0.719821     0.242861
   si1_1   Si     0.673738     0.670825     0.262211
   si1_1   Si     0.663162     0.702643     0.264277
   si1_1   Si     0.715967     0.682724     0.295145
   si1_1   Si     0.705390     0.714542     0.297210
   si1_1   Si     0.689544     0.722942     0.268805
   si1_1   Si     0.678967     0.754760     0.270871
   si1_1   Si     0.731772     0.734841     0.301738
   si1_1   Si     0.721196     0.766659     0.303804
   si1_1   Si     0.684278     0.717663     0.323154
   si1_1   Si     0.673701     0.749481     0.325220
   si1_1   Si     0.726507     0.729561     0.356087
   si1_1   Si     0.715930     0.761380     0.358153
   si1_1   Si     0.700083     0.769779     0.329748
   si1_1   Si     0.689507     0.801598     0.331813
   si1_1   Si     0.742312     0.781678     0.362681
   si1_1   Si     0.731735     0.813497     0.364747
   si1_1   Si     0.694818     0.764500     0.384097
   si1_1   Si     0.684241     0.796319     0.386163
   si1_1   Si     0.737046     0.776399     0.417030
   si1_1   Si     0.726470     0.808218     0.419096
   si1_1   Si     0.710623     0.816617     0.390690
   si1_1   Si     0.700047     0.848435     0.392756
   si1_1   Si     0.752852     0.828516     0.423624
   si1_1   Si     0.742275     0.860334     0.425689
   si1_1   Si     0.705357     0.811338     0.445040
   si1_1   Si     0.747586     0.823237     0.477973
   si1_1   Si     0.763392     0.875354     0.484566
   si1_1   Si     0.615659     0.649186     0.116052
   si1_1   Si     0.620970     0.612088     0.168335
   si1_1   Si     0.610393     0.643907     0.170401
   si1_1   Si     0.594547     0.652306     0.141996
   si1_1   Si     0.636775     0.664205     0.174929
   si1_1   Si     0.626199     0.696023     0.176995
   si1_1   Si     0.589281     0.647027     0.196345
   si1_1   Si     0.631510     0.658926     0.229278
   si1_1   Si     0.620933     0.690744     0.231344
   si1_1   Si     0.605086     0.699144     0.202938
   si1_1   Si     0.647315     0.711043     0.235872
   si1_1   Si     0.636738     0.742861     0.237938
   si1_1   Si     0.599821     0.693865     0.257288
   si1_1   Si     0.642049     0.705764     0.290221
   si1_1   Si     0.631473     0.737582     0.292287
   si1_1   Si     0.615626     0.745981     0.263881
   si1_1   Si     0.657855     0.757880     0.296814
   si1_1   Si     0.647278     0.789699     0.298880
   si1_1   Si     0.610360     0.740702     0.318231
   si1_1   Si     0.652589     0.752601     0.351164
   si1_1   Si     0.642012     0.784420     0.353230
   si1_1   Si     0.668395     0.804718     0.357757
   si1_1   Si     0.657818     0.836536     0.359823
   si1_1   Si     0.620900     0.787540     0.379173
   si1_1   Si     0.663129     0.799439     0.412106
   si1_1   Si     0.800346     0.845694     0.402208
   si1_1   Si     0.810886     0.892532     0.463150
   si1_1   Si     0.800309     0.924350     0.465216
   si1_1   Si     0.853115     0.904431     0.496084
   si1_1   Si     0.705349     0.775058     0.275398
   si1_1   Si     0.747578     0.786957     0.308332
   si1_1   Si     0.715889     0.821896     0.336341
   si1_1   Si     0.705312     0.853714     0.338407
   si1_1   Si     0.758118     0.833795     0.369274
   si1_1   Si     0.726429     0.868734     0.397284
   si1_1   Si     0.715852     0.900552     0.399350
   si1_1   Si     0.768657     0.880633     0.430217
   si1_1   Si     0.758081     0.912451     0.432283
   si1_1   Si     0.652581     0.716322     0.181522
   si1_1   Si     0.663121     0.763159     0.242465
   si1_1   Si     0.652544     0.794978     0.244531
   si1_1   Si     0.673660     0.809997     0.303408
   si1_1   Si     0.663084     0.841815     0.305474
   si1_1   Si     0.684200     0.856835     0.364351
   si1_1   Si     0.673623     0.888653     0.366416
   si1_1   Si     0.003757     0.005854     0.496872
   si1_1   Si     0.026989     0.053903     0.361899
   si1_1   Si     0.029315     0.085346     0.373493
   si1_1   Si     0.050346     0.086099     0.399678
   si1_1   Si     0.015342     0.033841     0.386198
   si1_1   Si     0.036373     0.034594     0.412382
   si1_1   Si     0.066726     0.023965     0.402674
   si1_1   Si     0.087758     0.024718     0.428859
   si1_1   Si     0.001287     0.127419     0.394795
   si1_1   Si     0.022319     0.128172     0.420980
   si1_1   Si     0.008346     0.076667     0.433684
   si1_1   Si     0.010672     0.108111     0.445278
   si1_1   Si     0.031704     0.108864     0.471463
   si1_1   Si     0.038699     0.066038     0.423976
   si1_1   Si     0.059731     0.066791     0.450161
   si1_1   Si     0.017730     0.057359     0.484167
   si1_1   Si     0.024726     0.014533     0.436681
   si1_1   Si     0.045758     0.015286     0.462866
   si1_1   Si     0.048084     0.046729     0.474460
   si1_1   Si     0.069115     0.047482     0.500644
   si1_1   Si     0.076111     0.004656     0.453158
   si1_1   Si     0.097143     0.005409     0.479342
   si1_1   Si     0.003676     0.150937     0.492765
   si1_1   Si     0.013061     0.131628     0.543248
   si1_1   Si     0.020056     0.088802     0.495761
   si1_1   Si     0.041088     0.089555     0.521946
   si1_1   Si     0.006083     0.037297     0.508466
   si1_1   Si     0.027115     0.038050     0.534651
   si1_1   Si     0.029441     0.069494     0.546245
   si1_1   Si     0.050472     0.070247     0.572429
   si1_1   Si     0.057468     0.027421     0.524943
   si1_1   Si     0.078500     0.028174     0.551127
   si1_1   Si     0.015467     0.017989     0.558949
   si1_1   Si     0.036499     0.018742     0.585134
   si1_1   Si     0.066852     0.008113     0.575426
   si1_1   Si     0.087884     0.008866     0.601611
   si1_1   Si     0.001413     0.111567     0.567546
   si1_1   Si     0.022445     0.112320     0.593731
   si1_1   Si     0.008472     0.060815     0.606436
   si1_1   Si     0.010798     0.092259     0.618030
   si1_1   Si     0.031829     0.093012     0.644214
   si1_1   Si     0.038825     0.050186     0.596728
   si1_1   Si     0.059857     0.050939     0.622913
   si1_1   Si     0.017856     0.041506     0.656919
   si1_1   Si     0.048209     0.030877     0.647211
   si1_1   Si     0.069241     0.031630     0.673396
   si1_1   Si     0.003802     0.135085     0.665516
   si1_1   Si     0.013186     0.115776     0.715999
   si1_1   Si     0.020182     0.072950     0.668513
   si1_1   Si     0.041214     0.073703     0.694698
   si1_1   Si     0.006209     0.021445     0.681217
   si1_1   Si     0.027241     0.022198     0.707402
   si1_1   Si     0.029566     0.053642     0.718996
   si1_1   Si     0.050598     0.054395     0.745181
   si1_1   Si     0.057594     0.011569     0.697694
   si1_1   Si     0.078625     0.012322     0.723879
   si1_1   Si     0.015593     0.002137     0.731701
   si1_1   Si     0.036625     0.002890     0.757885
   si1_1   Si     0.001539     0.095715     0.740298
   si1_1   Si     0.022571     0.096468     0.766483
   si1_1   Si     0.008598     0.044963     0.779187
   si1_1   Si     0.010923     0.076406     0.790781
   si1_1   Si     0.031955     0.077159     0.816966
   si1_1   Si     0.038951     0.034333     0.769479
   si1_1   Si     0.059983     0.035086     0.795664
   si1_1   Si     0.048335     0.015025     0.819963
   si1_1   Si     0.069367     0.015778     0.846147
   si1_1   Si     0.080700     0.075470     0.389970
   si1_1   Si     0.101731     0.076223     0.416155
   si1_1   Si     0.118111     0.014088     0.419151
   si1_1   Si     0.139143     0.014841     0.445336
   si1_1   Si     0.036292     0.179677     0.408275
   si1_1   Si     0.059650     0.211874     0.446054
   si1_1   Si     0.087677     0.169801     0.424752
   si1_1   Si     0.024645     0.159616     0.432574
   si1_1   Si     0.045677     0.160369     0.458758
   si1_1   Si     0.052672     0.117543     0.411272
   si1_1   Si     0.073704     0.118296     0.437457
   si1_1   Si     0.076030     0.149740     0.449051
   si1_1   Si     0.097062     0.150493     0.475235
   si1_1   Si     0.104057     0.107667     0.427749
   si1_1   Si     0.125089     0.108420     0.453933
   si1_1   Si     0.062057     0.098235     0.461755
   si1_1   Si     0.083088     0.098988     0.487940
   si1_1   Si     0.090084     0.056162     0.440453
   si1_1   Si     0.111116     0.056915     0.466638
   si1_1   Si     0.113442     0.088358     0.478232
   si1_1   Si     0.134473     0.089111     0.504417
   si1_1   Si     0.141469     0.046285     0.456930
   si1_1   Si     0.162501     0.047038     0.483115
   si1_1   Si     0.099468     0.036853     0.490936
   si1_1   Si     0.120500     0.037606     0.517121
   si1_1   Si     0.150853     0.026977     0.507413
   si1_1   Si     0.171885     0.027730     0.533598
   si1_1   Si     0.017649     0.202442     0.480060
   si1_1   Si     0.019975     0.233886     0.491654
   si1_1   Si     0.041007     0.234639     0.517839
   si1_1   Si     0.048003     0.191813     0.470352
   si1_1   Si     0.069034     0.192566     0.496537
   si1_1   Si     0.006002     0.182381     0.504359
   si1_1   Si     0.027034     0.183134     0.530543
   si1_1   Si     0.034029     0.140308     0.483057
   si1_1   Si     0.055061     0.141061     0.509242
   si1_1   Si     0.057387     0.172504     0.520836
   si1_1   Si     0.078419     0.173257     0.547020
   si1_1   Si     0.085414     0.130431     0.499534
   si1_1   Si     0.106446     0.131184     0.525718
   si1_1   Si     0.043414     0.120999     0.533540
   si1_1   Si     0.064446     0.121752     0.559725
   si1_1   Si     0.071441     0.078926     0.512238
   si1_1   Si     0.092473     0.079679     0.538423
   si1_1   Si     0.094799     0.111123     0.550017
   si1_1   Si     0.115830     0.111876     0.576202
   si1_1   Si     0.122826     0.069050     0.528715
   si1_1   Si     0.143858     0.069803     0.554900
   si1_1   Si     0.080825     0.059618     0.562721
   si1_1   Si     0.101857     0.060371     0.588906
   si1_1   Si     0.108853     0.017545     0.541420
   si1_1   Si     0.129885     0.018298     0.567604
   si1_1   Si     0.132210     0.049741     0.579198
   si1_1   Si     0.153242     0.050494     0.605383
   si1_1   Si     0.160238     0.007668     0.557897
   si1_1   Si     0.181269     0.008421     0.584081
   si1_1   Si     0.012980     0.276712     0.539141
   si1_1   Si     0.001332     0.256650     0.563439
   si1_1   Si     0.022364     0.257403     0.589624
   si1_1   Si     0.029360     0.214577     0.542137
   si1_1   Si     0.050391     0.215330     0.568322
   si1_1   Si     0.008391     0.205898     0.602328
   si1_1   Si     0.015386     0.163072     0.554842
   si1_1   Si     0.036418     0.163825     0.581027
   si1_1   Si     0.038744     0.195269     0.592621
   si1_1   Si     0.059776     0.196022     0.618805
   si1_1   Si     0.066771     0.153196     0.571319
   si1_1   Si     0.087803     0.153949     0.597503
   si1_1   Si     0.024771     0.143764     0.605325
   si1_1   Si     0.045803     0.144517     0.631510
   si1_1   Si     0.052798     0.101691     0.584023
   si1_1   Si     0.073830     0.102444     0.610208
   si1_1   Si     0.076156     0.133887     0.621802
   si1_1   Si     0.097187     0.134640     0.647987
   si1_1   Si     0.104183     0.091814     0.600500
   si1_1   Si     0.125215     0.092567     0.626685
   si1_1   Si     0.062183     0.082382     0.634507
   si1_1   Si     0.083214     0.083135     0.660691
   si1_1   Si     0.090210     0.040309     0.613205
   si1_1   Si     0.111242     0.041062     0.639389
   si1_1   Si     0.113567     0.072506     0.650983
   si1_1   Si     0.134599     0.073259     0.677168
   si1_1   Si     0.141595     0.030433     0.629682
   si1_1   Si     0.162627     0.031186     0.655866
   si1_1   Si     0.099594     0.021001     0.663688
   si1_1   Si     0.120626     0.021754     0.689873
   si1_1   Si     0.150979     0.011125     0.680165
   si1_1   Si     0.172011     0.011878     0.706350
   si1_1   Si     0.003721     0.280168     0.661409
   si1_1   Si     0.010717     0.237342     0.613922
   si1_1   Si     0.031748     0.238095     0.640107
   si1_1   Si     0.017775     0.186590     0.652812
   si1_1   Si     0.020101     0.218034     0.664406
   si1_1   Si     0.041133     0.218787     0.690590
   si1_1   Si     0.048128     0.175961     0.643104
   si1_1   Si     0.069160     0.176714     0.669289
   si1_1   Si     0.006128     0.166528     0.677110
   si1_1   Si     0.027160     0.167281     0.703295
   si1_1   Si     0.034155     0.124455     0.655808
   si1_1   Si     0.055187     0.125208     0.681993
   si1_1   Si     0.057513     0.156652     0.693587
   si1_1   Si     0.078545     0.157405     0.719772
   si1_1   Si     0.085540     0.114579     0.672285
   si1_1   Si     0.106572     0.115332     0.698470
   si1_1   Si     0.043540     0.105147     0.706292
   si1_1   Si     0.064571     0.105900     0.732476
   si1_1   Si     0.071567     0.063074     0.684990
   si1_1   Si     0.092599     0.063827     0.711174
   si1_1   Si     0.094925     0.095271     0.722768
   si1_1   Si     0.115956     0.096024     0.748953
   si1_1   Si     0.122952     0.053198     0.701467
   si1_1   Si     0.143984     0.053951     0.727651
   si1_1   Si     0.080951     0.043765     0.735473
   si1_1   Si     0.101983     0.044518     0.761658
   si1_1   Si     0.108979     0.001692     0.714171
   si1_1   Si     0.130010     0.002445     0.740356
   si1_1   Si     0.132336     0.033889     0.751950
   si1_1   Si     0.153368     0.034642     0.778135
   si1_1   Si     0.013106     0.260860     0.711892
   si1_1   Si     0.001458     0.240798     0.736191
   si1_1   Si     0.022490     0.241551     0.762375
   si1_1   Si     0.029486     0.198725     0.714889
   si1_1   Si     0.050517     0.199478     0.741074
   si1_1   Si     0.008517     0.190046     0.775080
   si1_1   Si     0.015512     0.147220     0.727593
   si1_1   Si     0.036544     0.147973     0.753778
   si1_1   Si     0.038870     0.179417     0.765372
   si1_1   Si     0.059902     0.180170     0.791557
   si1_1   Si     0.066897     0.137344     0.744070
   si1_1   Si     0.087929     0.138097     0.770255
   si1_1   Si     0.024897     0.127912     0.778077
   si1_1   Si     0.045928     0.128665     0.804261
   si1_1   Si     0.052924     0.085838     0.756775
   si1_1   Si     0.073956     0.086591     0.782960
   si1_1   Si     0.076282     0.118035     0.794554
   si1_1   Si     0.097313     0.118788     0.820738
   si1_1   Si     0.104309     0.075962     0.773252
   si1_1   Si     0.125341     0.076715     0.799436
   si1_1   Si     0.062308     0.066530     0.807258
   si1_1   Si     0.083340     0.067283     0.833443
   si1_1   Si     0.090336     0.024457     0.785956
   si1_1   Si     0.111367     0.025210     0.812141
   si1_1   Si     0.113693     0.056654     0.823735
   si1_1   Si     0.134725     0.057407     0.849920
   si1_1   Si     0.141721     0.014581     0.802433
   si1_1   Si     0.162752     0.015334     0.828618
   si1_1   Si     0.099720     0.005149     0.836439
   si1_1   Si     0.120752     0.005902     0.862624
   si1_1   Si     0.085666     0.098727     0.845037
   si1_1   Si     0.123078     0.037345     0.874218
   si1_1   Si     0.111035     0.201998     0.462531
   si1_1   Si     0.127415     0.139863     0.465527
   si1_1   Si     0.148447     0.140616     0.491712
   si1_1   Si     0.199831     0.130740     0.508189
   si1_1   Si     0.164827     0.078482     0.494709
   si1_1   Si     0.185858     0.079235     0.520894
   si1_1   Si     0.192854     0.036409     0.473407
   si1_1   Si     0.213886     0.037162     0.499592
   si1_1   Si     0.216211     0.068606     0.511186
   si1_1   Si     0.237243     0.069359     0.537370
   si1_1   Si     0.202238     0.017100     0.523890
   si1_1   Si     0.223270     0.017853     0.550075
   si1_1   Si     0.083008     0.244071     0.483833
   si1_1   Si     0.106365     0.276268     0.521611
   si1_1   Si     0.113361     0.233442     0.474125
   si1_1   Si     0.134392     0.234195     0.500309
   si1_1   Si     0.071360     0.224010     0.508131
   si1_1   Si     0.092392     0.224763     0.534316
   si1_1   Si     0.099388     0.181937     0.486829
   si1_1   Si     0.120419     0.182690     0.513014
   si1_1   Si     0.122745     0.214133     0.524608
   si1_1   Si     0.143777     0.214886     0.550793
   si1_1   Si     0.150772     0.172060     0.503306
   si1_1   Si     0.171804     0.172813     0.529491
   si1_1   Si     0.108772     0.162628     0.537312
   si1_1   Si     0.129804     0.163381     0.563497
   si1_1   Si     0.136799     0.120555     0.516011
   si1_1   Si     0.157831     0.121308     0.542195
   si1_1   Si     0.160157     0.152752     0.553789
   si1_1   Si     0.181189     0.153505     0.579974
   si1_1   Si     0.188184     0.110679     0.532488
   si1_1   Si     0.209216     0.111432     0.558672
   si1_1   Si     0.146184     0.101247     0.566494
   si1_1   Si     0.167215     0.102000     0.592679
   si1_1   Si     0.174211     0.059174     0.545192
   si1_1   Si     0.195243     0.059927     0.571377
   si1_1   Si     0.197569     0.091370     0.582971
   si1_1   Si     0.218600     0.092123     0.609155
   si1_1   Si     0.225596     0.049297     0.561669
   si1_1   Si     0.246628     0.050050     0.587854
   si1_1   Si     0.183595     0.039865     0.595675
   si1_1   Si     0.204627     0.040618     0.621860
   si1_1   Si     0.234980     0.029989     0.612152
   si1_1   Si     0.256012     0.030742     0.638337
   si1_1   Si     0.078338     0.318341     0.542913
   si1_1   Si     0.015306     0.308156     0.550735
   si1_1   Si     0.036337     0.308909     0.576919
   si1_1   Si     0.043333     0.266083     0.529433
   si1_1   Si     0.064365     0.266836     0.555618
   si1_1   Si     0.066690     0.298279     0.567212
   si1_1   Si     0.087722     0.299032     0.593396
   si1_1   Si     0.094718     0.256206     0.545910
   si1_1   Si     0.115750     0.256959     0.572094
   si1_1   Si     0.052717     0.246774     0.579916
   si1_1   Si     0.073749     0.247527     0.606101
   si1_1   Si     0.080745     0.204701     0.558614
   si1_1   Si     0.101776     0.205454     0.584799
   si1_1   Si     0.104102     0.236898     0.596393
   si1_1   Si     0.125134     0.237651     0.622578
   si1_1   Si     0.132129     0.194825     0.575091
   si1_1   Si     0.153161     0.195578     0.601276
   si1_1   Si     0.090129     0.185393     0.609097
   si1_1   Si     0.111161     0.186146     0.635282
   si1_1   Si     0.118156     0.143320     0.587796
   si1_1   Si     0.139188     0.144073     0.613980
   si1_1   Si     0.141514     0.175516     0.625574
   si1_1   Si     0.162546     0.176269     0.651759
   si1_1   Si     0.169541     0.133443     0.604273
   si1_1   Si     0.190573     0.134196     0.630457
   si1_1   Si     0.127541     0.124011     0.638279
   si1_1   Si     0.148572     0.124764     0.664464
   si1_1   Si     0.155568     0.081938     0.616977
   si1_1   Si     0.176600     0.082691     0.643162
   si1_1   Si     0.178926     0.114135     0.654756
   si1_1   Si     0.199957     0.114888     0.680941
   si1_1   Si     0.206953     0.072062     0.633454
   si1_1   Si     0.227985     0.072815     0.659639
   si1_1   Si     0.164952     0.062630     0.667460
   si1_1   Si     0.185984     0.063383     0.693645
   si1_1   Si     0.192980     0.020557     0.646159
   si1_1   Si     0.214011     0.021310     0.672343
   si1_1   Si     0.216337     0.052753     0.683937
   si1_1   Si     0.237369     0.053506     0.710122
   si1_1   Si     0.244365     0.010680     0.662635
   si1_1   Si     0.265396     0.011433     0.688820
   si1_1   Si     0.202364     0.001248     0.696642
   si1_1   Si     0.223396     0.002001     0.722826
   si1_1   Si     0.008310     0.350982     0.598221
   si1_1   Si     0.010636     0.382425     0.609815
   si1_1   Si     0.031668     0.383178     0.636000
   si1_1   Si     0.038663     0.340352     0.588513
   si1_1   Si     0.059695     0.341105     0.614698
   si1_1   Si     0.017694     0.331673     0.648704
   si1_1   Si     0.024690     0.288847     0.601218
   si1_1   Si     0.045722     0.289600     0.627403
   si1_1   Si     0.048048     0.321044     0.638997
   si1_1   Si     0.069079     0.321797     0.665181
   si1_1   Si     0.076075     0.278971     0.617695
   si1_1   Si     0.097107     0.279724     0.643880
   si1_1   Si     0.034074     0.269539     0.651701
   si1_1   Si     0.055106     0.270292     0.677886
   si1_1   Si     0.062102     0.227466     0.630399
   si1_1   Si     0.083133     0.228219     0.656584
   si1_1   Si     0.085459     0.259662     0.668178
   si1_1   Si     0.106491     0.260415     0.694363
   si1_1   Si     0.113487     0.217589     0.646876
   si1_1   Si     0.134518     0.218342     0.673061
   si1_1   Si     0.071486     0.208157     0.680883
   si1_1   Si     0.092518     0.208910     0.707067
   si1_1   Si     0.099513     0.166084     0.659581
   si1_1   Si     0.120545     0.166837     0.685765
   si1_1   Si     0.122871     0.198281     0.697359
   si1_1   Si     0.143903     0.199034     0.723544
   si1_1   Si     0.150898     0.156208     0.676058
   si1_1   Si     0.171930     0.156961     0.702242
   si1_1   Si     0.108898     0.146776     0.710064
   si1_1   Si     0.129929     0.147529     0.736249
   si1_1   Si     0.136925     0.104703     0.688762
   si1_1   Si     0.157957     0.105456     0.714947
   si1_1   Si     0.160283     0.136899     0.726541
   si1_1   Si     0.181314     0.137652     0.752726
   si1_1   Si     0.188310     0.094826     0.705239
   si1_1   Si     0.209342     0.095579     0.731424
   si1_1   Si     0.146309     0.085394     0.739245
   si1_1   Si     0.167341     0.086147     0.765430
   si1_1   Si     0.174337     0.043321     0.717944
   si1_1   Si     0.195368     0.044074     0.744128
   si1_1   Si     0.197694     0.075518     0.755722
   si1_1   Si     0.218726     0.076271     0.781907
   si1_1   Si     0.225722     0.033445     0.734420
   si1_1   Si     0.246753     0.034198     0.760605
   si1_1   Si     0.183721     0.024013     0.768427
   si1_1   Si     0.204753     0.024766     0.794612
   si1_1   Si     0.235106     0.014137     0.784904
   si1_1   Si     0.256138     0.014890     0.811088
   si1_1   Si     0.020020     0.363117     0.660298
   si1_1   Si     0.041052     0.363870     0.686483
   si1_1   Si     0.006047     0.311612     0.673003
   si1_1   Si     0.027079     0.312365     0.699188
   si1_1   Si     0.029405     0.343809     0.710782
   si1_1   Si     0.050436     0.344562     0.736966
   si1_1   Si     0.057432     0.301735     0.689480
   si1_1   Si     0.078464     0.302488     0.715665
   si1_1   Si     0.015431     0.292303     0.723486
   si1_1   Si     0.036463     0.293056     0.749671
   si1_1   Si     0.043459     0.250230     0.702184
   si1_1   Si     0.064490     0.250983     0.728369
   si1_1   Si     0.066816     0.282427     0.739963
   si1_1   Si     0.087848     0.283180     0.766148
   si1_1   Si     0.094844     0.240354     0.718661
   si1_1   Si     0.115875     0.241107     0.744846
   si1_1   Si     0.052843     0.230922     0.752668
   si1_1   Si     0.073875     0.231675     0.778852
   si1_1   Si     0.080870     0.188849     0.731366
   si1_1   Si     0.101902     0.189602     0.757550
   si1_1   Si     0.104228     0.221046     0.769144
   si1_1   Si     0.125260     0.221799     0.795329
   si1_1   Si     0.132255     0.178973     0.747843
   si1_1   Si     0.153287     0.179726     0.774027
   si1_1   Si     0.090255     0.169540     0.781849
   si1_1   Si     0.111287     0.170293     0.808034
   si1_1   Si     0.118282     0.127467     0.760547
   si1_1   Si     0.139314     0.128220     0.786732
   si1_1   Si     0.141640     0.159664     0.798326
   si1_1   Si     0.162671     0.160417     0.824511
   si1_1   Si     0.169667     0.117591     0.777024
   si1_1   Si     0.190699     0.118344     0.803209
   si1_1   Si     0.127667     0.108159     0.811030
   si1_1   Si     0.148698     0.108912     0.837215
   si1_1   Si     0.155694     0.066086     0.789729
   si1_1   Si     0.176726     0.066839     0.815913
   si1_1   Si     0.179051     0.098283     0.827507
   si1_1   Si     0.200083     0.099036     0.853692
   si1_1   Si     0.207079     0.056210     0.806206
   si1_1   Si     0.228110     0.056963     0.832390
   si1_1   Si     0.165078     0.046777     0.840212
   si1_1   Si     0.186110     0.047530     0.866397
   si1_1   Si     0.193106     0.004704     0.818910
   si1_1   Si     0.214137     0.005457     0.845095
   si1_1   Si     0.216463     0.036901     0.856689
   si1_1   Si     0.237495     0.037654     0.882873
   si1_1   Si     0.038789     0.324500     0.761265
   si1_1   Si     0.059821     0.325253     0.787450
   si1_1   Si     0.024816     0.272995     0.773969
   si1_1   Si     0.076201     0.263119     0.790446
   si1_1   Si     0.097232     0.263872     0.816631
   si1_1   Si     0.062227     0.211613     0.803151
   si1_1   Si     0.113612     0.201737     0.819628
   si1_1   Si     0.134644     0.202490     0.845812
   si1_1   Si     0.099639     0.150232     0.832332
   si1_1   Si     0.120671     0.150985     0.858517
   si1_1   Si     0.151024     0.140356     0.848809
   si1_1   Si     0.172056     0.141109     0.874994
   si1_1   Si     0.137051     0.088850     0.861514
   si1_1   Si     0.158083     0.089603     0.887698
   si1_1   Si     0.188436     0.078974     0.877991
   si1_1   Si     0.209468     0.079727     0.904175
   si1_1   Si     0.174463     0.027469     0.890695
   si1_1   Si     0.195494     0.028222     0.916880
   si1_1   Si     0.225848     0.017593     0.907172
   si1_1   Si     0.246879     0.018346     0.933357
   si1_1   Si     0.136718     0.265638     0.511903
   si1_1   Si     0.157750     0.266391     0.538088
   si1_1   Si     0.209135     0.256515     0.554565
   si1_1   Si     0.174130     0.204257     0.541085
   si1_1   Si     0.195162     0.205010     0.567270
   si1_1   Si     0.202157     0.162184     0.519783
   si1_1   Si     0.223189     0.162937     0.545968
   si1_1   Si     0.225515     0.194381     0.557562
   si1_1   Si     0.246547     0.195134     0.583746
   si1_1   Si     0.211542     0.142875     0.570266
   si1_1   Si     0.232573     0.143628     0.596451
   si1_1   Si     0.239569     0.100802     0.548964
   si1_1   Si     0.260601     0.101555     0.575149
   si1_1   Si     0.262927     0.132999     0.586743
   si1_1   Si     0.283958     0.133752     0.612928
   si1_1   Si     0.311986     0.091679     0.591626
   si1_1   Si     0.248953     0.081494     0.599448
   si1_1   Si     0.269985     0.082247     0.625632
   si1_1   Si     0.276981     0.039421     0.578146
   si1_1   Si     0.298012     0.040174     0.604331
   si1_1   Si     0.300338     0.071618     0.615925
   si1_1   Si     0.321370     0.072371     0.642109
   si1_1   Si     0.286365     0.020112     0.628629
   si1_1   Si     0.307397     0.020865     0.654814
   si1_1   Si     0.101695     0.350538     0.580692
   si1_1   Si     0.108691     0.307711     0.533205
   si1_1   Si     0.129723     0.308464     0.559390
   si1_1   Si     0.132049     0.339908     0.570984
   si1_1   Si     0.153080     0.340661     0.597169
   si1_1   Si     0.160076     0.297835     0.549682
   si1_1   Si     0.181108     0.298588     0.575867
   si1_1   Si     0.118075     0.288403     0.583688
   si1_1   Si     0.139107     0.289156     0.609873
   si1_1   Si     0.146103     0.246330     0.562387
   si1_1   Si     0.167134     0.247083     0.588571
   si1_1   Si     0.169460     0.278527     0.600165
   si1_1   Si     0.190492     0.279280     0.626350
   si1_1   Si     0.197488     0.236454     0.578864
   si1_1   Si     0.218519     0.237207     0.605048
   si1_1   Si     0.155487     0.227022     0.612870
   si1_1   Si     0.176519     0.227775     0.639055
   si1_1   Si     0.183514     0.184948     0.591568
   si1_1   Si     0.204546     0.185701     0.617753
   si1_1   Si     0.206872     0.217145     0.629347
   si1_1   Si     0.227904     0.217898     0.655532
   si1_1   Si     0.234899     0.175072     0.608045
   si1_1   Si     0.255931     0.175825     0.634230
   si1_1   Si     0.192899     0.165640     0.642051
   si1_1   Si     0.213931     0.166393     0.668236
   si1_1   Si     0.220926     0.123567     0.620749
   si1_1   Si     0.241958     0.124320     0.646934
   si1_1   Si     0.244284     0.155764     0.658528
   si1_1   Si     0.265315     0.156517     0.684713
   si1_1   Si     0.272311     0.113691     0.637226
   si1_1   Si     0.293343     0.114444     0.663411
   si1_1   Si     0.230311     0.104259     0.671233
   si1_1   Si     0.251342     0.105012     0.697417
   si1_1   Si     0.258338     0.062186     0.649931
   si1_1   Si     0.279370     0.062939     0.676116
   si1_1   Si     0.281695     0.094382     0.687710
   si1_1   Si     0.302727     0.095135     0.713894
   si1_1   Si     0.309723     0.052309     0.666408
   si1_1   Si     0.330754     0.053062     0.692593
   si1_1   Si     0.267722     0.042877     0.700414
   si1_1   Si     0.288754     0.043630     0.726599
   si1_1   Si     0.295750     0.000804     0.679112
   si1_1   Si     0.316781     0.001557     0.705297
   si1_1   Si     0.319107     0.033001     0.716891
   si1_1   Si     0.062021     0.372549     0.626292
   si1_1   Si     0.083052     0.373302     0.652477
   si1_1   Si     0.090048     0.330476     0.604990
   si1_1   Si     0.111080     0.331229     0.631175
   si1_1   Si     0.113406     0.362673     0.642769
   si1_1   Si     0.141433     0.320600     0.621467
   si1_1   Si     0.162465     0.321353     0.647652
   si1_1   Si     0.099432     0.311168     0.655474
   si1_1   Si     0.120464     0.311921     0.681658
   si1_1   Si     0.127460     0.269095     0.634172
   si1_1   Si     0.148491     0.269848     0.660356
   si1_1   Si     0.150817     0.301291     0.671950
   si1_1   Si     0.171849     0.302044     0.698135
   si1_1   Si     0.178845     0.259218     0.650649
   si1_1   Si     0.199876     0.259971     0.676833
   si1_1   Si     0.136844     0.249786     0.684655
   si1_1   Si     0.157876     0.250539     0.710840
   si1_1   Si     0.164871     0.207713     0.663353
   si1_1   Si     0.185903     0.208466     0.689538
   si1_1   Si     0.188229     0.239910     0.701132
   si1_1   Si     0.209261     0.240663     0.727317
   si1_1   Si     0.216256     0.197837     0.679830
   si1_1   Si     0.237288     0.198590     0.706015
   si1_1   Si     0.174256     0.188405     0.713836
   si1_1   Si     0.195288     0.189158     0.740021
   si1_1   Si     0.202283     0.146332     0.692535
   si1_1   Si     0.223315     0.147085     0.718719
   si1_1   Si     0.225641     0.178528     0.730313
   si1_1   Si     0.246672     0.179281     0.756498
   si1_1   Si     0.253668     0.136455     0.709011
   si1_1   Si     0.274700     0.137208     0.735196
   si1_1   Si     0.211668     0.127023     0.743018
   si1_1   Si     0.232699     0.127776     0.769202
   si1_1   Si     0.239695     0.084950     0.721716
   si1_1   Si     0.260727     0.085703     0.747901
   si1_1   Si     0.263052     0.117147     0.759495
   si1_1   Si     0.284084     0.117900     0.785679
   si1_1   Si     0.291080     0.075074     0.738193
   si1_1   Si     0.312112     0.075827     0.764378
   si1_1   Si     0.249079     0.065642     0.772199
   si1_1   Si     0.270111     0.066395     0.798384
   si1_1   Si     0.277107     0.023569     0.750897
   si1_1   Si     0.298138     0.024322     0.777082
   si1_1   Si     0.300464     0.055765     0.788676
   si1_1   Si     0.321496     0.056518     0.814861
   si1_1   Si     0.286491     0.004260     0.801381
   si1_1   Si     0.307523     0.005013     0.827565
   si1_1   Si     0.071405     0.353241     0.676775
   si1_1   Si     0.092437     0.353994     0.702960
   si1_1   Si     0.122790     0.343364     0.693252
   si1_1   Si     0.080790     0.333932     0.727259
   si1_1   Si     0.101821     0.334685     0.753443
   si1_1   Si     0.108817     0.291859     0.705957
   si1_1   Si     0.129849     0.292612     0.732141
   si1_1   Si     0.160202     0.281983     0.722434
   si1_1   Si     0.118201     0.272551     0.756440
   si1_1   Si     0.139233     0.273304     0.782625
   si1_1   Si     0.146229     0.230478     0.735138
   si1_1   Si     0.167260     0.231231     0.761323
   si1_1   Si     0.169586     0.262674     0.772917
   si1_1   Si     0.197613     0.220601     0.751615
   si1_1   Si     0.218645     0.221354     0.777800
   si1_1   Si     0.155613     0.211169     0.785621
   si1_1   Si     0.176645     0.211922     0.811806
   si1_1   Si     0.183640     0.169096     0.764320
   si1_1   Si     0.204672     0.169849     0.790504
   si1_1   Si     0.206998     0.201293     0.802098
   si1_1   Si     0.228030     0.202046     0.828283
   si1_1   Si     0.235025     0.159220     0.780796
   si1_1   Si     0.256057     0.159973     0.806981
   si1_1   Si     0.193025     0.149788     0.814803
   si1_1   Si     0.214056     0.150541     0.840988
   si1_1   Si     0.221052     0.107715     0.793501
   si1_1   Si     0.242084     0.108468     0.819686
   si1_1   Si     0.244410     0.139911     0.831280
   si1_1   Si     0.265441     0.140664     0.857464
   si1_1   Si     0.272437     0.097838     0.809978
   si1_1   Si     0.293469     0.098591     0.836163
   si1_1   Si     0.230436     0.088406     0.843984
   si1_1   Si     0.251468     0.089159     0.870169
   si1_1   Si     0.258464     0.046333     0.822682
   si1_1   Si     0.279495     0.047086     0.848867
   si1_1   Si     0.281821     0.078530     0.860461
   si1_1   Si     0.302853     0.079283     0.886646
   si1_1   Si     0.309849     0.036457     0.839159
   si1_1   Si     0.267848     0.027025     0.873166
   si1_1   Si     0.288880     0.027778     0.899350
   si1_1   Si     0.090174     0.314624     0.777742
   si1_1   Si     0.127586     0.253242     0.806923
   si1_1   Si     0.148617     0.253995     0.833108
   si1_1   Si     0.178971     0.243366     0.823400
   si1_1   Si     0.136970     0.233934     0.857406
   si1_1   Si     0.164997     0.191861     0.836105
   si1_1   Si     0.186029     0.192614     0.862289
   si1_1   Si     0.216382     0.181985     0.852582
   si1_1   Si     0.237414     0.182738     0.878766
   si1_1   Si     0.174382     0.172552     0.886588
   si1_1   Si     0.202409     0.130479     0.865286
   si1_1   Si     0.223441     0.131232     0.891471
   si1_1   Si     0.225767     0.162676     0.903065
   si1_1   Si     0.253794     0.120603     0.881763
   si1_1   Si     0.274826     0.121356     0.907948
   si1_1   Si     0.211793     0.111171     0.915769
   si1_1   Si     0.239821     0.069098     0.894467
   si1_1   Si     0.260852     0.069851     0.920652
   si1_1   Si     0.263178     0.101295     0.932246
   si1_1   Si     0.291206     0.059222     0.910944
   si1_1   Si     0.249205     0.049789     0.944951
   si1_1   Si     0.277232     0.007716     0.923649
   si1_1   Si     0.314312     0.123123     0.603220
   si1_1   Si     0.335343     0.123876     0.629405
   si1_1   Si     0.351723     0.061741     0.632402
   si1_1   Si     0.183433     0.330032     0.587461
   si1_1   Si     0.211461     0.287959     0.566159
   si1_1   Si     0.232493     0.288712     0.592344
   si1_1   Si     0.220845     0.268650     0.616642
   si1_1   Si     0.241877     0.269403     0.642827
   si1_1   Si     0.248873     0.226577     0.595340
   si1_1   Si     0.269904     0.227330     0.621525
   si1_1   Si     0.272230     0.258774     0.633119
   si1_1   Si     0.321289     0.217454     0.638002
   si1_1   Si     0.258257     0.207269     0.645824
   si1_1   Si     0.279289     0.208022     0.672008
   si1_1   Si     0.286284     0.165196     0.624522
   si1_1   Si     0.307316     0.165949     0.650707
   si1_1   Si     0.309642     0.197393     0.662301
   si1_1   Si     0.330674     0.198146     0.688485
   si1_1   Si     0.337669     0.155320     0.640999
   si1_1   Si     0.358701     0.156073     0.667184
   si1_1   Si     0.295669     0.145887     0.675005
   si1_1   Si     0.316700     0.146640     0.701190
   si1_1   Si     0.323696     0.103814     0.653703
   si1_1   Si     0.344728     0.104567     0.679888
   si1_1   Si     0.347054     0.136011     0.691482
   si1_1   Si     0.368085     0.136764     0.717667
   si1_1   Si     0.333080     0.084506     0.704187
   si1_1   Si     0.354112     0.085259     0.730371
   si1_1   Si     0.192818     0.310723     0.637944
   si1_1   Si     0.202202     0.291415     0.688427
   si1_1   Si     0.230230     0.249342     0.667126
   si1_1   Si     0.251261     0.250095     0.693310
   si1_1   Si     0.239614     0.230034     0.717609
   si1_1   Si     0.267641     0.187961     0.696307
   si1_1   Si     0.288673     0.188713     0.722492
   si1_1   Si     0.319026     0.178084     0.712784
   si1_1   Si     0.277026     0.168652     0.746790
   si1_1   Si     0.298057     0.169405     0.772975
   si1_1   Si     0.305053     0.126579     0.725488
   si1_1   Si     0.326085     0.127332     0.751673
   si1_1   Si     0.328411     0.158776     0.763267
   si1_1   Si     0.356438     0.116703     0.741965
   si1_1   Si     0.314437     0.107271     0.775972
   si1_1   Si     0.335469     0.108024     0.802156
   si1_1   Si     0.342465     0.065198     0.754670
   si1_1   Si     0.248998     0.210725     0.768092
   si1_1   Si     0.258383     0.191417     0.818575
   si1_1   Si     0.286410     0.149344     0.797273
   si1_1   Si     0.307442     0.150097     0.823458
   si1_1   Si     0.337795     0.139467     0.813750
   si1_1   Si     0.295794     0.130035     0.847757
   si1_1   Si     0.316826     0.130788     0.873941
   si1_1   Si     0.323822     0.087962     0.826455
   si1_1   Si     0.344853     0.088715     0.852640
   si1_1   Si     0.333206     0.068654     0.876938
   si1_1   Si     0.305179     0.110727     0.898240
   si1_1   Si     0.262429     0.840629     0.035294
   si1_1   Si     0.287976     0.802044     0.172861
   si1_1   Si     0.244092     0.809393     0.204948
   si1_1   Si     0.226734     0.820877     0.178578
   si1_1   Si     0.230612     0.854165     0.176257
   si1_1   Si     0.186728     0.861515     0.208344
   si1_1   Si     0.433109     0.735223     0.105290
   si1_1   Si     0.389225     0.742573     0.137377
   si1_1   Si     0.371867     0.754056     0.111008
   si1_1   Si     0.375745     0.787345     0.108686
   si1_1   Si     0.331861     0.794694     0.140773
   si1_1   Si     0.325827     0.791601     0.086336
   si1_1   Si     0.281943     0.798950     0.118423
   si1_1   Si     0.314503     0.806178     0.114404
   si1_1   Si     0.318380     0.839466     0.112082
   si1_1   Si     0.270619     0.813528     0.146491
   si1_1   Si     0.274496     0.846816     0.144169
   si1_1   Si     0.268463     0.843722     0.089732
   si1_1   Si     0.224578     0.851072     0.121819
   si1_1   Si     0.257138     0.858299     0.117800
   si1_1   Si     0.261016     0.891588     0.115478
   si1_1   Si     0.213254     0.865649     0.149887
   si1_1   Si     0.217132     0.898937     0.147566
   si1_1   Si     0.203651     0.943709     0.118874
   si1_1   Si     0.476994     0.727874     0.073203
   si1_1   Si     0.415752     0.746707     0.078920
   si1_1   Si     0.419629     0.779995     0.076599
   si1_1   Si     0.369711     0.784251     0.054248
   si1_1   Si     0.402271     0.791479     0.050229
   si1_1   Si     0.406149     0.824767     0.047907
   si1_1   Si     0.358387     0.798828     0.082316
   si1_1   Si     0.362265     0.832117     0.079995
   si1_1   Si     0.352353     0.795735     0.027879
   si1_1   Si     0.356231     0.829023     0.025557
   si1_1   Si     0.308469     0.803084     0.059966
   si1_1   Si     0.312347     0.836373     0.057644
   si1_1   Si     0.344907     0.843600     0.053625
   si1_1   Si     0.348784     0.876889     0.051304
   si1_1   Si     0.301022     0.850950     0.085712
   si1_1   Si     0.304900     0.884238     0.083391
   si1_1   Si     0.294989     0.847856     0.031275
   si1_1   Si     0.298866     0.881145     0.028953
   si1_1   Si     0.251105     0.855206     0.063362
   si1_1   Si     0.254982     0.888494     0.061040
   si1_1   Si     0.287542     0.895722     0.057021
   si1_1   Si     0.291420     0.929010     0.054700
   si1_1   Si     0.243658     0.903071     0.089108
   si1_1   Si     0.247535     0.936360     0.086787
   si1_1   Si     0.237624     0.899978     0.034671
   si1_1   Si     0.241502     0.933266     0.032349
   si1_1   Si     0.331426     0.888372     0.024934
   si1_1   Si     0.335304     0.921661     0.022612
   si1_1   Si     0.281509     0.892628     0.002583
   si1_1   Si     0.285386     0.925917     0.000262
   si1_1   Si     0.124507     0.837629     0.410086
   si1_1   Si     0.269640     0.770809     0.342515
   si1_1   Si     0.225755     0.778158     0.374602
   si1_1   Si     0.208398     0.789642     0.348232
   si1_1   Si     0.212275     0.822930     0.345911
   si1_1   Si     0.168391     0.830280     0.377998
   si1_1   Si     0.162357     0.827186     0.323561
   si1_1   Si     0.151033     0.841763     0.351628
   si1_1   Si     0.154911     0.875052     0.349307
   si1_1   Si     0.414773     0.703988     0.274944
   si1_1   Si     0.370888     0.711338     0.307031
   si1_1   Si     0.357408     0.756109     0.278340
   si1_1   Si     0.313524     0.763459     0.310428
   si1_1   Si     0.307490     0.760365     0.255990
   si1_1   Si     0.296166     0.774943     0.284058
   si1_1   Si     0.300044     0.808231     0.281736
   si1_1   Si     0.252282     0.782292     0.316145
   si1_1   Si     0.256159     0.815581     0.313824
   si1_1   Si     0.250126     0.812487     0.259386
   si1_1   Si     0.206242     0.819837     0.291473
   si1_1   Si     0.238801     0.827064     0.287454
   si1_1   Si     0.242679     0.860352     0.285132
   si1_1   Si     0.194917     0.834414     0.319541
   si1_1   Si     0.198795     0.867702     0.317220
   si1_1   Si     0.188884     0.831320     0.265103
   si1_1   Si     0.192761     0.864608     0.262782
   si1_1   Si     0.181437     0.879186     0.290850
   si1_1   Si     0.185314     0.912474     0.288528
   si1_1   Si     0.137553     0.886535     0.322937
   si1_1   Si     0.141430     0.919824     0.320616
   si1_1   Si     0.559906     0.637167     0.207373
   si1_1   Si     0.516022     0.644517     0.239461
   si1_1   Si     0.502541     0.689289     0.210769
   si1_1   Si     0.458657     0.696638     0.242857
   si1_1   Si     0.452623     0.693545     0.188419
   si1_1   Si     0.441299     0.708122     0.216487
   si1_1   Si     0.445177     0.741410     0.214166
   si1_1   Si     0.397415     0.715472     0.248574
   si1_1   Si     0.401292     0.748760     0.246253
   si1_1   Si     0.395259     0.745666     0.191815
   si1_1   Si     0.351375     0.753016     0.223902
   si1_1   Si     0.383934     0.760244     0.219883
   si1_1   Si     0.387812     0.793532     0.217562
   si1_1   Si     0.340050     0.767593     0.251970
   si1_1   Si     0.343928     0.800881     0.249649
   si1_1   Si     0.334017     0.764500     0.197533
   si1_1   Si     0.337894     0.797788     0.195211
   si1_1   Si     0.290132     0.771849     0.229620
   si1_1   Si     0.294010     0.805137     0.227299
   si1_1   Si     0.326570     0.812365     0.223279
   si1_1   Si     0.330447     0.845653     0.220958
   si1_1   Si     0.282686     0.819715     0.255366
   si1_1   Si     0.286563     0.853003     0.253045
   si1_1   Si     0.276652     0.816621     0.200929
   si1_1   Si     0.280530     0.849909     0.198607
   si1_1   Si     0.232768     0.823971     0.233016
   si1_1   Si     0.236645     0.857259     0.230695
   si1_1   Si     0.269205     0.864487     0.226675
   si1_1   Si     0.273083     0.897775     0.224354
   si1_1   Si     0.225321     0.871836     0.258762
   si1_1   Si     0.229199     0.905124     0.256441
   si1_1   Si     0.219288     0.868743     0.204325
   si1_1   Si     0.223165     0.902031     0.202003
   si1_1   Si     0.175403     0.876092     0.236412
   si1_1   Si     0.179281     0.909380     0.234091
   si1_1   Si     0.211841     0.916608     0.230071
   si1_1   Si     0.215718     0.949896     0.227750
   si1_1   Si     0.167957     0.923958     0.262158
   si1_1   Si     0.171834     0.957246     0.259837
   si1_1   Si     0.165801     0.954152     0.205399
   si1_1   Si     0.154476     0.968730     0.233467
   si1_1   Si     0.590310     0.674590     0.146595
   si1_1   Si     0.542548     0.648651     0.181004
   si1_1   Si     0.546425     0.681939     0.178682
   si1_1   Si     0.540392     0.678846     0.124244
   si1_1   Si     0.496508     0.686195     0.156332
   si1_1   Si     0.529067     0.693423     0.152312
   si1_1   Si     0.532945     0.726711     0.149991
   si1_1   Si     0.485183     0.700773     0.184400
   si1_1   Si     0.489061     0.734061     0.182078
   si1_1   Si     0.479150     0.697679     0.129962
   si1_1   Si     0.483027     0.730967     0.127640
   si1_1   Si     0.435265     0.705029     0.162049
   si1_1   Si     0.439143     0.738317     0.159728
   si1_1   Si     0.471703     0.745544     0.155708
   si1_1   Si     0.475581     0.778833     0.153387
   si1_1   Si     0.427819     0.752894     0.187796
   si1_1   Si     0.431696     0.786182     0.185474
   si1_1   Si     0.421785     0.749800     0.133358
   si1_1   Si     0.425663     0.783089     0.131037
   si1_1   Si     0.377901     0.757150     0.165445
   si1_1   Si     0.381778     0.790438     0.163124
   si1_1   Si     0.414338     0.797666     0.159104
   si1_1   Si     0.418216     0.830954     0.156783
   si1_1   Si     0.370454     0.805016     0.191192
   si1_1   Si     0.374332     0.838304     0.188870
   si1_1   Si     0.364421     0.801922     0.136754
   si1_1   Si     0.368298     0.835210     0.134433
   si1_1   Si     0.320536     0.809272     0.168841
   si1_1   Si     0.324414     0.842560     0.166520
   si1_1   Si     0.356974     0.849787     0.162500
   si1_1   Si     0.360851     0.883076     0.160179
   si1_1   Si     0.313090     0.857137     0.194588
   si1_1   Si     0.316967     0.890425     0.192266
   si1_1   Si     0.307056     0.854043     0.140150
   si1_1   Si     0.310934     0.887332     0.137829
   si1_1   Si     0.263172     0.861393     0.172237
   si1_1   Si     0.267049     0.894681     0.169916
   si1_1   Si     0.299609     0.901909     0.165896
   si1_1   Si     0.303487     0.935197     0.163575
   si1_1   Si     0.255725     0.909259     0.197984
   si1_1   Si     0.259603     0.942547     0.195662
   si1_1   Si     0.249691     0.906165     0.143546
   si1_1   Si     0.253569     0.939453     0.141225
   si1_1   Si     0.205807     0.913515     0.175633
   si1_1   Si     0.209685     0.946803     0.173312
   si1_1   Si     0.242245     0.954031     0.169292
   si1_1   Si     0.198360     0.961380     0.201380
   si1_1   Si     0.572952     0.686073     0.120225
   si1_1   Si     0.576829     0.719362     0.117904
   si1_1   Si     0.523034     0.690329     0.097875
   si1_1   Si     0.526912     0.723618     0.095553
   si1_1   Si     0.559471     0.730845     0.091534
   si1_1   Si     0.515587     0.738195     0.123621
   si1_1   Si     0.519465     0.771483     0.121300
   si1_1   Si     0.509554     0.735101     0.069183
   si1_1   Si     0.465669     0.742451     0.101271
   si1_1   Si     0.469547     0.775739     0.098949
   si1_1   Si     0.502107     0.782967     0.094930
   si1_1   Si     0.505984     0.816255     0.092608
   si1_1   Si     0.458223     0.790316     0.127017
   si1_1   Si     0.462100     0.823605     0.124696
   si1_1   Si     0.452189     0.787223     0.072579
   si1_1   Si     0.456067     0.820511     0.070258
   si1_1   Si     0.408305     0.794572     0.104667
   si1_1   Si     0.412182     0.827861     0.102345
   si1_1   Si     0.444742     0.835088     0.098326
   si1_1   Si     0.448620     0.868377     0.096004
   si1_1   Si     0.400858     0.842438     0.130413
   si1_1   Si     0.404736     0.875726     0.128092
   si1_1   Si     0.394824     0.839344     0.075975
   si1_1   Si     0.398702     0.872633     0.073654
   si1_1   Si     0.350940     0.846694     0.108063
   si1_1   Si     0.354818     0.879982     0.105741
   si1_1   Si     0.387378     0.887210     0.101722
   si1_1   Si     0.391255     0.920498     0.099400
   si1_1   Si     0.343493     0.894559     0.133809
   si1_1   Si     0.347371     0.927848     0.131488
   si1_1   Si     0.337460     0.891466     0.079371
   si1_1   Si     0.341337     0.924754     0.077050
   si1_1   Si     0.293576     0.898815     0.111459
   si1_1   Si     0.297453     0.932104     0.109137
   si1_1   Si     0.330013     0.939331     0.105118
   si1_1   Si     0.286129     0.946681     0.137205
   si1_1   Si     0.280095     0.943587     0.082767
   si1_1   Si     0.236211     0.950937     0.114855
   si1_1   Si     0.488626     0.827739     0.066238
   si1_1   Si     0.492504     0.861027     0.063917
   si1_1   Si     0.438709     0.831995     0.043888
   si1_1   Si     0.431262     0.879860     0.069634
   si1_1   Si     0.435140     0.913149     0.067313
   si1_1   Si     0.381344     0.884116     0.047284
   si1_1   Si     0.385222     0.917405     0.044963
   si1_1   Si     0.417782     0.924632     0.040943
   si1_1   Si     0.373897     0.931982     0.073030
   si1_1   Si     0.367864     0.928888     0.018593
   si1_1   Si     0.323980     0.936238     0.050680
   si1_1   Si     0.251303     0.739573     0.512169
   si1_1   Si     0.193938     0.791695     0.515565
   si1_1   Si     0.150054     0.799044     0.547652
   si1_1   Si     0.144020     0.795951     0.493215
   si1_1   Si     0.132696     0.810528     0.521282
   si1_1   Si     0.136574     0.843816     0.518961
   si1_1   Si     0.086656     0.848072     0.496611
   si1_1   Si     0.396436     0.672753     0.444598
   si1_1   Si     0.339071     0.724874     0.447994
   si1_1   Si     0.295187     0.732224     0.480082
   si1_1   Si     0.277829     0.743707     0.453712
   si1_1   Si     0.281707     0.776996     0.451390
   si1_1   Si     0.233945     0.751057     0.485799
   si1_1   Si     0.237823     0.784345     0.483478
   si1_1   Si     0.231789     0.781252     0.429040
   si1_1   Si     0.187905     0.788601     0.461127
   si1_1   Si     0.220465     0.795829     0.457108
   si1_1   Si     0.224342     0.829117     0.454786
   si1_1   Si     0.176580     0.803178     0.489195
   si1_1   Si     0.180458     0.836467     0.486874
   si1_1   Si     0.170547     0.800085     0.434757
   si1_1   Si     0.174424     0.833373     0.432436
   si1_1   Si     0.130540     0.840723     0.464523
   si1_1   Si     0.163100     0.847950     0.460504
   si1_1   Si     0.166978     0.881239     0.458182
   si1_1   Si     0.119216     0.855300     0.492591
   si1_1   Si     0.123093     0.888588     0.490270
   si1_1   Si     0.113182     0.852206     0.438153
   si1_1   Si     0.117060     0.885495     0.435832
   si1_1   Si     0.105735     0.900072     0.463900
   si1_1   Si     0.109613     0.933360     0.461578
   si1_1   Si     0.541569     0.605932     0.377028
   si1_1   Si     0.484204     0.658054     0.380424
   si1_1   Si     0.440320     0.665403     0.412511
   si1_1   Si     0.422962     0.676887     0.386141
   si1_1   Si     0.426840     0.710175     0.383820
   si1_1   Si     0.379078     0.684236     0.418228
   si1_1   Si     0.382956     0.717525     0.415907
   si1_1   Si     0.376922     0.714431     0.361469
   si1_1   Si     0.333038     0.721781     0.393557
   si1_1   Si     0.365598     0.729008     0.389537
   si1_1   Si     0.369475     0.762297     0.387216
   si1_1   Si     0.321713     0.736358     0.421624
   si1_1   Si     0.325591     0.769646     0.419303
   si1_1   Si     0.315680     0.733264     0.367187
   si1_1   Si     0.319557     0.766553     0.364865
   si1_1   Si     0.275673     0.773902     0.396953
   si1_1   Si     0.308233     0.781130     0.392933
   si1_1   Si     0.312111     0.814418     0.390612
   si1_1   Si     0.264349     0.788479     0.425020
   si1_1   Si     0.268226     0.821768     0.422699
   si1_1   Si     0.258315     0.785386     0.370583
   si1_1   Si     0.262193     0.818674     0.368261
   si1_1   Si     0.214431     0.792735     0.402670
   si1_1   Si     0.218309     0.826024     0.400349
   si1_1   Si     0.250869     0.833251     0.396329
   si1_1   Si     0.254746     0.866540     0.394008
   si1_1   Si     0.206984     0.840601     0.428416
   si1_1   Si     0.210862     0.873889     0.426095
   si1_1   Si     0.200951     0.837507     0.373979
   si1_1   Si     0.204828     0.870796     0.371657
   si1_1   Si     0.157066     0.844857     0.406066
   si1_1   Si     0.160944     0.878145     0.403745
   si1_1   Si     0.193504     0.885373     0.399725
   si1_1   Si     0.197382     0.918661     0.397404
   si1_1   Si     0.149620     0.892722     0.431813
   si1_1   Si     0.153497     0.926011     0.429491
   si1_1   Si     0.143586     0.889629     0.377375
   si1_1   Si     0.147464     0.922917     0.375053
   si1_1   Si     0.103580     0.930267     0.407141
   si1_1   Si     0.136139     0.937494     0.403121
   si1_1   Si     0.140017     0.970783     0.400800
   si1_1   Si     0.092255     0.944844     0.435209
   si1_1   Si     0.571973     0.643354     0.316249
   si1_1   Si     0.524211     0.617416     0.350658
   si1_1   Si     0.528089     0.650704     0.348336
   si1_1   Si     0.522055     0.647610     0.293899
   si1_1   Si     0.478171     0.654960     0.325986
   si1_1   Si     0.510731     0.662188     0.321966
   si1_1   Si     0.514608     0.695476     0.319645
   si1_1   Si     0.466846     0.669537     0.354054
   si1_1   Si     0.470724     0.702826     0.351732
   si1_1   Si     0.460813     0.666444     0.299616
   si1_1   Si     0.464690     0.699732     0.297295
   si1_1   Si     0.420806     0.707082     0.329382
   si1_1   Si     0.453366     0.714309     0.325362
   si1_1   Si     0.457244     0.747597     0.323041
   si1_1   Si     0.409482     0.721659     0.357450
   si1_1   Si     0.413359     0.754947     0.355128
   si1_1   Si     0.403448     0.718565     0.303012
   si1_1   Si     0.407326     0.751853     0.300691
   si1_1   Si     0.359564     0.725915     0.335099
   si1_1   Si     0.363442     0.759203     0.332778
   si1_1   Si     0.396002     0.766431     0.328758
   si1_1   Si     0.399879     0.799719     0.326437
   si1_1   Si     0.352117     0.773780     0.360846
   si1_1   Si     0.355995     0.807069     0.358524
   si1_1   Si     0.346084     0.770687     0.306408
   si1_1   Si     0.349961     0.803975     0.304087
   si1_1   Si     0.302200     0.778036     0.338495
   si1_1   Si     0.306077     0.811325     0.336174
   si1_1   Si     0.338637     0.818552     0.332154
   si1_1   Si     0.342515     0.851840     0.329833
   si1_1   Si     0.294753     0.825902     0.364242
   si1_1   Si     0.298630     0.859190     0.361920
   si1_1   Si     0.288719     0.822808     0.309804
   si1_1   Si     0.292597     0.856096     0.307483
   si1_1   Si     0.244835     0.830158     0.341891
   si1_1   Si     0.248713     0.863446     0.339570
   si1_1   Si     0.281272     0.870674     0.335551
   si1_1   Si     0.285150     0.903962     0.333229
   si1_1   Si     0.237388     0.878023     0.367638
   si1_1   Si     0.241266     0.911312     0.365316
   si1_1   Si     0.231355     0.874930     0.313200
   si1_1   Si     0.235232     0.908218     0.310879
   si1_1   Si     0.187470     0.882279     0.345287
   si1_1   Si     0.191348     0.915568     0.342966
   si1_1   Si     0.223908     0.922795     0.338947
   si1_1   Si     0.227785     0.956083     0.336625
   si1_1   Si     0.180024     0.930145     0.371034
   si1_1   Si     0.183901     0.963433     0.368712
   si1_1   Si     0.173990     0.927051     0.316596
   si1_1   Si     0.177868     0.960340     0.314275
   si1_1   Si     0.130106     0.934401     0.348683
   si1_1   Si     0.133983     0.967689     0.346362
   si1_1   Si     0.166543     0.974917     0.342343
   si1_1   Si     0.122659     0.982266     0.374430
   si1_1   Si     0.565939     0.640261     0.261811
   si1_1   Si     0.554615     0.654838     0.289879
   si1_1   Si     0.558493     0.688126     0.287558
   si1_1   Si     0.548581     0.651745     0.235441
   si1_1   Si     0.552459     0.685033     0.233120
   si1_1   Si     0.504697     0.659094     0.267529
   si1_1   Si     0.508575     0.692382     0.265207
   si1_1   Si     0.541135     0.699610     0.261188
   si1_1   Si     0.545012     0.732898     0.258866
   si1_1   Si     0.497250     0.706960     0.293275
   si1_1   Si     0.501128     0.740248     0.290954
   si1_1   Si     0.491217     0.703866     0.238837
   si1_1   Si     0.495094     0.737154     0.236516
   si1_1   Si     0.447333     0.711216     0.270925
   si1_1   Si     0.451210     0.744504     0.268603
   si1_1   Si     0.483770     0.751732     0.264584
   si1_1   Si     0.487648     0.785020     0.262262
   si1_1   Si     0.439886     0.759081     0.296671
   si1_1   Si     0.443763     0.792369     0.294350
   si1_1   Si     0.433852     0.755988     0.242233
   si1_1   Si     0.437730     0.789276     0.239912
   si1_1   Si     0.389968     0.763337     0.274321
   si1_1   Si     0.393846     0.796625     0.271999
   si1_1   Si     0.426405     0.803853     0.267980
   si1_1   Si     0.430283     0.837141     0.265658
   si1_1   Si     0.382521     0.811203     0.300067
   si1_1   Si     0.386399     0.844491     0.297746
   si1_1   Si     0.376488     0.808109     0.245629
   si1_1   Si     0.380365     0.841397     0.243308
   si1_1   Si     0.332603     0.815459     0.277717
   si1_1   Si     0.336481     0.848747     0.275395
   si1_1   Si     0.369041     0.855975     0.271376
   si1_1   Si     0.372918     0.889263     0.269054
   si1_1   Si     0.325157     0.863324     0.303463
   si1_1   Si     0.329034     0.896612     0.301142
   si1_1   Si     0.319123     0.860231     0.249025
   si1_1   Si     0.323001     0.893519     0.246704
   si1_1   Si     0.275239     0.867580     0.281113
   si1_1   Si     0.279116     0.900868     0.278791
   si1_1   Si     0.311676     0.908096     0.274772
   si1_1   Si     0.315554     0.941384     0.272450
   si1_1   Si     0.267792     0.915446     0.306859
   si1_1   Si     0.271670     0.948734     0.304538
   si1_1   Si     0.261759     0.912352     0.252422
   si1_1   Si     0.265636     0.945640     0.250100
   si1_1   Si     0.217874     0.919702     0.284509
   si1_1   Si     0.221752     0.952990     0.282187
   si1_1   Si     0.254312     0.960218     0.278168
   si1_1   Si     0.210428     0.967567     0.310255
   si1_1   Si     0.204394     0.964474     0.255818
   si1_1   Si     0.160510     0.971823     0.287905
   si1_1   Si     0.585019     0.692261     0.229100
   si1_1   Si     0.588896     0.725549     0.226779
   si1_1   Si     0.578985     0.689167     0.174663
   si1_1   Si     0.582863     0.722455     0.172341
   si1_1   Si     0.535101     0.696517     0.206750
   si1_1   Si     0.538979     0.729805     0.204429
   si1_1   Si     0.571538     0.737032     0.200409
   si1_1   Si     0.575416     0.770321     0.198088
   si1_1   Si     0.527654     0.744382     0.232496
   si1_1   Si     0.531532     0.777670     0.230175
   si1_1   Si     0.521621     0.741288     0.178059
   si1_1   Si     0.525498     0.774577     0.175737
   si1_1   Si     0.477736     0.748638     0.210146
   si1_1   Si     0.481614     0.781926     0.207825
   si1_1   Si     0.514174     0.789154     0.203805
   si1_1   Si     0.518052     0.822442     0.201484
   si1_1   Si     0.470290     0.796504     0.235892
   si1_1   Si     0.474167     0.829792     0.233571
   si1_1   Si     0.464256     0.793410     0.181455
   si1_1   Si     0.468134     0.826698     0.179133
   si1_1   Si     0.420372     0.800760     0.213542
   si1_1   Si     0.424249     0.834048     0.211221
   si1_1   Si     0.456809     0.841275     0.207201
   si1_1   Si     0.460687     0.874564     0.204880
   si1_1   Si     0.412925     0.848625     0.239289
   si1_1   Si     0.416803     0.881913     0.236967
   si1_1   Si     0.406892     0.845531     0.184851
   si1_1   Si     0.410769     0.878820     0.182529
   si1_1   Si     0.363007     0.852881     0.216938
   si1_1   Si     0.366885     0.886169     0.214617
   si1_1   Si     0.399445     0.893397     0.210597
   si1_1   Si     0.403322     0.926685     0.208276
   si1_1   Si     0.355561     0.900747     0.242685
   si1_1   Si     0.359438     0.934035     0.240363
   si1_1   Si     0.349527     0.897653     0.188247
   si1_1   Si     0.353405     0.930941     0.185925
   si1_1   Si     0.305643     0.905003     0.220334
   si1_1   Si     0.309520     0.938291     0.218013
   si1_1   Si     0.342080     0.945518     0.213993
   si1_1   Si     0.298196     0.952868     0.246081
   si1_1   Si     0.292162     0.949774     0.191643
   si1_1   Si     0.248278     0.957124     0.223730
   si1_1   Si     0.615423     0.729683     0.168322
   si1_1   Si     0.619300     0.762971     0.166000
   si1_1   Si     0.609389     0.726589     0.113884
   si1_1   Si     0.565505     0.733939     0.145971
   si1_1   Si     0.569383     0.767227     0.143650
   si1_1   Si     0.601942     0.774455     0.139630
   si1_1   Si     0.605820     0.807743     0.137309
   si1_1   Si     0.558058     0.781804     0.171718
   si1_1   Si     0.561936     0.815093     0.169396
   si1_1   Si     0.552025     0.778711     0.117280
   si1_1   Si     0.555902     0.811999     0.114959
   si1_1   Si     0.508140     0.786060     0.149367
   si1_1   Si     0.512018     0.819349     0.147046
   si1_1   Si     0.544578     0.826576     0.143027
   si1_1   Si     0.548455     0.859865     0.140705
   si1_1   Si     0.500694     0.833926     0.175114
   si1_1   Si     0.504571     0.867214     0.172792
   si1_1   Si     0.494660     0.830832     0.120676
   si1_1   Si     0.498538     0.864121     0.118355
   si1_1   Si     0.450776     0.838182     0.152763
   si1_1   Si     0.454653     0.871470     0.150442
   si1_1   Si     0.487213     0.878698     0.146423
   si1_1   Si     0.491091     0.911986     0.144101
   si1_1   Si     0.443329     0.886047     0.178510
   si1_1   Si     0.447207     0.919336     0.176188
   si1_1   Si     0.437295     0.882954     0.124072
   si1_1   Si     0.441173     0.916242     0.121751
   si1_1   Si     0.393411     0.890303     0.156159
   si1_1   Si     0.397289     0.923592     0.153838
   si1_1   Si     0.429849     0.930819     0.149819
   si1_1   Si     0.385964     0.938169     0.181906
   si1_1   Si     0.379931     0.935075     0.127468
   si1_1   Si     0.336047     0.942425     0.159556
   si1_1   Si     0.588462     0.819227     0.110939
   si1_1   Si     0.592340     0.852515     0.108618
   si1_1   Si     0.538544     0.823483     0.088589
   si1_1   Si     0.542422     0.856771     0.086267
   si1_1   Si     0.531098     0.871348     0.114335
   si1_1   Si     0.534975     0.904637     0.112014
   si1_1   Si     0.481180     0.875604     0.091985
   si1_1   Si     0.485057     0.908893     0.089663
   si1_1   Si     0.517617     0.916120     0.085644
   si1_1   Si     0.473733     0.923470     0.117731
   si1_1   Si     0.467699     0.920376     0.063294
   si1_1   Si     0.423815     0.927726     0.095381
   si1_1   Si     0.320735     0.693639     0.617648
   si1_1   Si     0.263370     0.745760     0.621044
   si1_1   Si     0.404625     0.645651     0.555795
   si1_1   Si     0.408503     0.678940     0.553474
   si1_1   Si     0.364619     0.686289     0.585561
   si1_1   Si     0.358585     0.683196     0.531123
   si1_1   Si     0.314701     0.690545     0.563211
   si1_1   Si     0.347261     0.697773     0.559191
   si1_1   Si     0.351138     0.731061     0.556870
   si1_1   Si     0.303377     0.705122     0.591278
   si1_1   Si     0.307254     0.738411     0.588957
   si1_1   Si     0.301221     0.735317     0.534519
   si1_1   Si     0.257336     0.742667     0.566607
   si1_1   Si     0.289896     0.749894     0.562587
   si1_1   Si     0.293774     0.783183     0.560266
   si1_1   Si     0.246012     0.757244     0.594675
   si1_1   Si     0.249890     0.790532     0.592353
   si1_1   Si     0.239978     0.754150     0.540237
   si1_1   Si     0.243856     0.787439     0.537915
   si1_1   Si     0.196094     0.761500     0.572324
   si1_1   Si     0.199972     0.794788     0.570003
   si1_1   Si     0.232532     0.802016     0.565983
   si1_1   Si     0.236409     0.835304     0.563662
   si1_1   Si     0.192525     0.842654     0.595749
   si1_1   Si     0.182614     0.806272     0.543633
   si1_1   Si     0.186492     0.839560     0.541311
   si1_1   Si     0.142607     0.846910     0.573399
   si1_1   Si     0.175167     0.854137     0.569379
   si1_1   Si     0.179045     0.887426     0.567058
   si1_1   Si     0.125249     0.858393     0.547029
   si1_1   Si     0.503718     0.616375     0.463553
   si1_1   Si     0.459834     0.623725     0.495640
   si1_1   Si     0.492394     0.630952     0.491620
   si1_1   Si     0.496271     0.664241     0.489299
   si1_1   Si     0.448510     0.638302     0.523708
   si1_1   Si     0.452387     0.671590     0.521386
   si1_1   Si     0.446354     0.668497     0.466949
   si1_1   Si     0.402469     0.675846     0.499036
   si1_1   Si     0.435029     0.683074     0.495016
   si1_1   Si     0.438907     0.716362     0.492695
   si1_1   Si     0.391145     0.690423     0.527104
   si1_1   Si     0.395023     0.723712     0.524782
   si1_1   Si     0.385112     0.687330     0.472666
   si1_1   Si     0.388989     0.720618     0.470345
   si1_1   Si     0.341227     0.694679     0.504753
   si1_1   Si     0.345105     0.727968     0.502432
   si1_1   Si     0.377665     0.735195     0.498413
   si1_1   Si     0.381542     0.768484     0.496091
   si1_1   Si     0.333781     0.742545     0.530500
   si1_1   Si     0.337658     0.775833     0.528178
   si1_1   Si     0.327747     0.739451     0.476062
   si1_1   Si     0.331625     0.772740     0.473741
   si1_1   Si     0.283863     0.746801     0.508149
   si1_1   Si     0.287740     0.780089     0.505828
   si1_1   Si     0.320300     0.787317     0.501809
   si1_1   Si     0.324178     0.820605     0.499487
   si1_1   Si     0.276416     0.794666     0.533896
   si1_1   Si     0.280294     0.827955     0.531574
   si1_1   Si     0.270382     0.791573     0.479458
   si1_1   Si     0.274260     0.824861     0.477137
   si1_1   Si     0.226498     0.798922     0.511545
   si1_1   Si     0.230376     0.832211     0.509224
   si1_1   Si     0.262936     0.839438     0.505205
   si1_1   Si     0.266813     0.872727     0.502883
   si1_1   Si     0.219051     0.846788     0.537292
   si1_1   Si     0.222929     0.880076     0.534970
   si1_1   Si     0.213018     0.843694     0.482854
   si1_1   Si     0.216895     0.876983     0.480533
   si1_1   Si     0.169134     0.851044     0.514942
   si1_1   Si     0.173011     0.884332     0.512620
   si1_1   Si     0.205571     0.891560     0.508601
   si1_1   Si     0.209449     0.924848     0.506279
   si1_1   Si     0.161687     0.898909     0.540688
   si1_1   Si     0.155653     0.895816     0.486250
   si1_1   Si     0.159531     0.929104     0.483929
   si1_1   Si     0.547602     0.609026     0.431465
   si1_1   Si     0.536278     0.623603     0.459533
   si1_1   Si     0.540156     0.656891     0.457212
   si1_1   Si     0.530245     0.620509     0.405095
   si1_1   Si     0.534122     0.653798     0.402774
   si1_1   Si     0.486360     0.627859     0.437183
   si1_1   Si     0.490238     0.661147     0.434861
   si1_1   Si     0.522798     0.668375     0.430842
   si1_1   Si     0.526675     0.701663     0.428520
   si1_1   Si     0.478914     0.675724     0.462929
   si1_1   Si     0.482791     0.709013     0.460608
   si1_1   Si     0.472880     0.672631     0.408491
   si1_1   Si     0.476758     0.705919     0.406170
   si1_1   Si     0.428996     0.679980     0.440579
   si1_1   Si     0.432873     0.713269     0.438257
   si1_1   Si     0.465433     0.720496     0.434238
   si1_1   Si     0.469311     0.753785     0.431916
   si1_1   Si     0.421549     0.727846     0.466325
   si1_1   Si     0.425427     0.761134     0.464004
   si1_1   Si     0.415515     0.724752     0.411887
   si1_1   Si     0.419393     0.758041     0.409566
   si1_1   Si     0.371631     0.732102     0.443975
   si1_1   Si     0.375509     0.765390     0.441653
   si1_1   Si     0.408069     0.772618     0.437634
   si1_1   Si     0.411946     0.805906     0.435312
   si1_1   Si     0.364184     0.779967     0.469721
   si1_1   Si     0.368062     0.813256     0.467400
   si1_1   Si     0.358151     0.776874     0.415284
   si1_1   Si     0.362028     0.810162     0.412962
   si1_1   Si     0.314267     0.784223     0.447371
   si1_1   Si     0.318144     0.817512     0.445049
   si1_1   Si     0.350704     0.824739     0.441030
   si1_1   Si     0.354582     0.858028     0.438708
   si1_1   Si     0.306820     0.832089     0.473117
   si1_1   Si     0.310697     0.865377     0.470796
   si1_1   Si     0.300786     0.828995     0.418680
   si1_1   Si     0.304664     0.862284     0.416358
   si1_1   Si     0.256902     0.836345     0.450767
   si1_1   Si     0.260780     0.869633     0.448445
   si1_1   Si     0.293340     0.876861     0.444426
   si1_1   Si     0.297217     0.910149     0.442105
   si1_1   Si     0.249455     0.884210     0.476513
   si1_1   Si     0.253333     0.917499     0.474192
   si1_1   Si     0.243422     0.881117     0.422076
   si1_1   Si     0.247299     0.914405     0.419754
   si1_1   Si     0.199537     0.888466     0.454163
   si1_1   Si     0.203415     0.921755     0.451841
   si1_1   Si     0.235975     0.928982     0.447822
   si1_1   Si     0.239853     0.962271     0.445501
   si1_1   Si     0.192091     0.936332     0.479909
   si1_1   Si     0.195968     0.969620     0.477588
   si1_1   Si     0.186057     0.933238     0.425472
   si1_1   Si     0.189935     0.966527     0.423150
   si1_1   Si     0.142173     0.940588     0.457559
   si1_1   Si     0.146051     0.973876     0.455237
   si1_1   Si     0.178610     0.981104     0.451218
   si1_1   Si     0.128693     0.985360     0.428868
   si1_1   Si     0.566682     0.661025     0.398754
   si1_1   Si     0.570560     0.694314     0.396433
   si1_1   Si     0.560648     0.657932     0.344317
   si1_1   Si     0.564526     0.691220     0.341995
   si1_1   Si     0.516764     0.665281     0.376404
   si1_1   Si     0.520642     0.698570     0.374083
   si1_1   Si     0.553202     0.705797     0.370063
   si1_1   Si     0.557079     0.739085     0.367742
   si1_1   Si     0.509317     0.713147     0.402151
   si1_1   Si     0.513195     0.746435     0.399829
   si1_1   Si     0.503284     0.710053     0.347713
   si1_1   Si     0.507162     0.743341     0.345391
   si1_1   Si     0.459400     0.717403     0.379800
   si1_1   Si     0.463277     0.750691     0.377479
   si1_1   Si     0.495837     0.757919     0.373459
   si1_1   Si     0.499715     0.791207     0.371138
   si1_1   Si     0.451953     0.765268     0.405547
   si1_1   Si     0.455830     0.798557     0.403225
   si1_1   Si     0.445919     0.762175     0.351109
   si1_1   Si     0.449797     0.795463     0.348787
   si1_1   Si     0.402035     0.769524     0.383196
   si1_1   Si     0.405913     0.802813     0.380875
   si1_1   Si     0.438473     0.810040     0.376855
   si1_1   Si     0.442350     0.843328     0.374534
   si1_1   Si     0.394588     0.817390     0.408943
   si1_1   Si     0.398466     0.850678     0.406621
   si1_1   Si     0.388555     0.814296     0.354505
   si1_1   Si     0.392432     0.847584     0.352183
   si1_1   Si     0.344671     0.821646     0.386592
   si1_1   Si     0.348548     0.854934     0.384271
   si1_1   Si     0.381108     0.862162     0.380251
   si1_1   Si     0.384986     0.895450     0.377930
   si1_1   Si     0.337224     0.869511     0.412339
   si1_1   Si     0.341101     0.902800     0.410017
   si1_1   Si     0.331190     0.866418     0.357901
   si1_1   Si     0.335068     0.899706     0.355579
   si1_1   Si     0.287306     0.873767     0.389988
   si1_1   Si     0.291184     0.907056     0.387667
   si1_1   Si     0.323743     0.914283     0.383647
   si1_1   Si     0.327621     0.947571     0.381326
   si1_1   Si     0.279859     0.921633     0.415735
   si1_1   Si     0.283737     0.954921     0.413413
   si1_1   Si     0.273826     0.918539     0.361297
   si1_1   Si     0.277703     0.951827     0.358975
   si1_1   Si     0.229941     0.925889     0.393384
   si1_1   Si     0.233819     0.959177     0.391063
   si1_1   Si     0.266379     0.966405     0.387043
   si1_1   Si     0.270256     0.999693     0.384722
   si1_1   Si     0.222495     0.973754     0.419131
   si1_1   Si     0.216461     0.970661     0.364693
   si1_1   Si     0.172577     0.978010     0.396780
   si1_1   Si     0.591052     0.695354     0.283538
   si1_1   Si     0.594930     0.728642     0.281217
   si1_1   Si     0.547168     0.702704     0.315625
   si1_1   Si     0.551046     0.735992     0.313304
   si1_1   Si     0.583606     0.743220     0.309285
   si1_1   Si     0.587483     0.776508     0.306963
   si1_1   Si     0.539721     0.750569     0.341372
   si1_1   Si     0.543599     0.783857     0.339050
   si1_1   Si     0.533688     0.747476     0.286934
   si1_1   Si     0.537565     0.780764     0.284613
   si1_1   Si     0.489804     0.754825     0.319021
   si1_1   Si     0.493681     0.788113     0.316700
   si1_1   Si     0.526241     0.795341     0.312681
   si1_1   Si     0.530119     0.828629     0.310359
   si1_1   Si     0.482357     0.802691     0.344768
   si1_1   Si     0.486234     0.835979     0.342446
   si1_1   Si     0.476323     0.799597     0.290330
   si1_1   Si     0.480201     0.832885     0.288009
   si1_1   Si     0.432439     0.806947     0.322418
   si1_1   Si     0.436317     0.840235     0.320096
   si1_1   Si     0.468876     0.847463     0.316077
   si1_1   Si     0.472754     0.880751     0.313755
   si1_1   Si     0.424992     0.854812     0.348164
   si1_1   Si     0.428870     0.888100     0.345842
   si1_1   Si     0.418959     0.851719     0.293726
   si1_1   Si     0.422836     0.885007     0.291405
   si1_1   Si     0.375074     0.859068     0.325814
   si1_1   Si     0.378952     0.892356     0.323492
   si1_1   Si     0.411512     0.899584     0.319473
   si1_1   Si     0.415389     0.932872     0.317151
   si1_1   Si     0.367628     0.906934     0.351560
   si1_1   Si     0.371505     0.940222     0.349239
   si1_1   Si     0.361594     0.903840     0.297122
   si1_1   Si     0.365472     0.937128     0.294801
   si1_1   Si     0.317710     0.911190     0.329210
   si1_1   Si     0.321587     0.944478     0.326888
   si1_1   Si     0.354147     0.951706     0.322869
   si1_1   Si     0.358025     0.984994     0.320547
   si1_1   Si     0.310263     0.959055     0.354956
   si1_1   Si     0.314141     0.992343     0.352635
   si1_1   Si     0.304230     0.955962     0.300518
   si1_1   Si     0.260345     0.963311     0.332606
   si1_1   Si     0.625334     0.766065     0.220438
   si1_1   Si     0.577572     0.740126     0.254847
   si1_1   Si     0.581450     0.773414     0.252525
   si1_1   Si     0.614010     0.780642     0.248506
   si1_1   Si     0.617887     0.813930     0.246184
   si1_1   Si     0.570125     0.787992     0.280593
   si1_1   Si     0.574003     0.821280     0.278272
   si1_1   Si     0.564092     0.784898     0.226156
   si1_1   Si     0.567969     0.818186     0.223834
   si1_1   Si     0.520207     0.792248     0.258243
   si1_1   Si     0.524085     0.825536     0.255921
   si1_1   Si     0.556645     0.832763     0.251902
   si1_1   Si     0.560523     0.866052     0.249581
   si1_1   Si     0.512761     0.840113     0.283989
   si1_1   Si     0.516638     0.873401     0.281668
   si1_1   Si     0.506727     0.837019     0.229552
   si1_1   Si     0.510605     0.870308     0.227230
   si1_1   Si     0.462843     0.844369     0.261639
   si1_1   Si     0.466720     0.877657     0.259317
   si1_1   Si     0.499280     0.884885     0.255298
   si1_1   Si     0.503158     0.918173     0.252977
   si1_1   Si     0.455396     0.892235     0.287385
   si1_1   Si     0.459274     0.925523     0.285064
   si1_1   Si     0.449363     0.889141     0.232948
   si1_1   Si     0.453240     0.922429     0.230626
   si1_1   Si     0.405478     0.896491     0.265035
   si1_1   Si     0.409356     0.929779     0.262713
   si1_1   Si     0.441916     0.937006     0.258694
   si1_1   Si     0.445793     0.970295     0.256373
   si1_1   Si     0.398032     0.944356     0.290781
   si1_1   Si     0.401909     0.977644     0.288460
   si1_1   Si     0.391998     0.941262     0.236344
   si1_1   Si     0.395876     0.974551     0.234022
   si1_1   Si     0.348114     0.948612     0.268431
   si1_1   Si     0.351991     0.981900     0.266110
   si1_1   Si     0.607976     0.777548     0.194068
   si1_1   Si     0.611854     0.810837     0.191747
   si1_1   Si     0.600529     0.825414     0.219815
   si1_1   Si     0.604407     0.858702     0.217493
   si1_1   Si     0.594496     0.822320     0.165377
   si1_1   Si     0.598373     0.855609     0.163055
   si1_1   Si     0.550611     0.829670     0.197464
   si1_1   Si     0.554489     0.862958     0.195143
   si1_1   Si     0.587049     0.870186     0.191123
   si1_1   Si     0.590926     0.903474     0.188802
   si1_1   Si     0.543165     0.877535     0.223211
   si1_1   Si     0.547042     0.910824     0.220889
   si1_1   Si     0.537131     0.874442     0.168773
   si1_1   Si     0.541009     0.907730     0.166451
   si1_1   Si     0.493247     0.881791     0.200860
   si1_1   Si     0.497124     0.915080     0.198539
   si1_1   Si     0.529684     0.922307     0.194519
   si1_1   Si     0.485800     0.929657     0.226607
   si1_1   Si     0.489678     0.962945     0.224285
   si1_1   Si     0.479766     0.926563     0.172169
   si1_1   Si     0.483644     0.959852     0.169848
   si1_1   Si     0.435882     0.933913     0.204256
   si1_1   Si     0.439760     0.967201     0.201935
   si1_1   Si     0.581015     0.867092     0.136686
   si1_1   Si     0.523651     0.919214     0.140082
   si1_1   Si     0.313288     0.741504     0.643395
   si1_1   Si     0.397179     0.693517     0.581542
   si1_1   Si     0.353294     0.700866     0.613629
   si1_1   Si     0.357172     0.734155     0.611307
   si1_1   Si     0.339814     0.745638     0.584938
   si1_1   Si     0.343692     0.778927     0.582616
   si1_1   Si     0.295930     0.752988     0.617025
   si1_1   Si     0.299807     0.786276     0.614703
   si1_1   Si     0.332367     0.793504     0.610684
   si1_1   Si     0.336245     0.826792     0.608363
   si1_1   Si     0.288483     0.800853     0.642771
   si1_1   Si     0.292361     0.834142     0.640450
   si1_1   Si     0.282450     0.797760     0.588334
   si1_1   Si     0.286327     0.831048     0.586012
   si1_1   Si     0.238565     0.805109     0.620421
   si1_1   Si     0.242443     0.838398     0.618099
   si1_1   Si     0.275003     0.845625     0.614080
   si1_1   Si     0.278880     0.878914     0.611759
   si1_1   Si     0.234996     0.886263     0.643846
   si1_1   Si     0.225085     0.849881     0.591730
   si1_1   Si     0.228963     0.883170     0.589408
   si1_1   Si     0.217638     0.897747     0.617476
   si1_1   Si     0.441063     0.686167     0.549454
   si1_1   Si     0.427583     0.730939     0.520763
   si1_1   Si     0.431460     0.764228     0.518441
   si1_1   Si     0.383698     0.738289     0.552850
   si1_1   Si     0.387576     0.771577     0.550529
   si1_1   Si     0.420136     0.778805     0.546509
   si1_1   Si     0.424013     0.812093     0.544188
   si1_1   Si     0.376252     0.786154     0.578597
   si1_1   Si     0.380129     0.819443     0.576275
   si1_1   Si     0.370218     0.783061     0.524159
   si1_1   Si     0.374096     0.816349     0.521837
   si1_1   Si     0.326334     0.790410     0.556246
   si1_1   Si     0.330211     0.823699     0.553925
   si1_1   Si     0.362771     0.830926     0.549905
   si1_1   Si     0.366649     0.864215     0.547584
   si1_1   Si     0.318887     0.838276     0.581993
   si1_1   Si     0.322765     0.871564     0.579671
   si1_1   Si     0.312853     0.835182     0.527555
   si1_1   Si     0.316731     0.868471     0.525234
   si1_1   Si     0.268969     0.842532     0.559642
   si1_1   Si     0.272847     0.875820     0.557321
   si1_1   Si     0.305407     0.883048     0.553301
   si1_1   Si     0.309284     0.916336     0.550980
   si1_1   Si     0.261522     0.890397     0.585389
   si1_1   Si     0.265400     0.923686     0.583067
   si1_1   Si     0.255489     0.887304     0.530951
   si1_1   Si     0.259366     0.920592     0.528630
   si1_1   Si     0.211605     0.894653     0.563038
   si1_1   Si     0.215482     0.927942     0.560717
   si1_1   Si     0.248042     0.935169     0.556697
   si1_1   Si     0.251920     0.968458     0.554376
   si1_1   Si     0.198124     0.939425     0.534347
   si1_1   Si     0.515351     0.716240     0.456588
   si1_1   Si     0.519229     0.749529     0.454267
   si1_1   Si     0.471467     0.723590     0.488676
   si1_1   Si     0.475344     0.756878     0.486354
   si1_1   Si     0.507904     0.764106     0.482335
   si1_1   Si     0.511782     0.797394     0.480013
   si1_1   Si     0.464020     0.771455     0.514422
   si1_1   Si     0.467898     0.804744     0.512101
   si1_1   Si     0.457986     0.768362     0.459984
   si1_1   Si     0.461864     0.801650     0.457663
   si1_1   Si     0.414102     0.775711     0.492072
   si1_1   Si     0.417980     0.809000     0.489750
   si1_1   Si     0.450540     0.816227     0.485731
   si1_1   Si     0.454417     0.849516     0.483409
   si1_1   Si     0.406655     0.823577     0.517818
   si1_1   Si     0.410533     0.856865     0.515497
   si1_1   Si     0.400622     0.820483     0.463380
   si1_1   Si     0.404499     0.853772     0.461059
   si1_1   Si     0.356738     0.827833     0.495468
   si1_1   Si     0.360615     0.861121     0.493146
   si1_1   Si     0.393175     0.868349     0.489127
   si1_1   Si     0.397053     0.901637     0.486805
   si1_1   Si     0.349291     0.875698     0.521214
   si1_1   Si     0.353168     0.908987     0.518893
   si1_1   Si     0.343257     0.872605     0.466776
   si1_1   Si     0.347135     0.905893     0.464455
   si1_1   Si     0.299373     0.879954     0.498864
   si1_1   Si     0.303251     0.913243     0.496542
   si1_1   Si     0.335811     0.920470     0.492523
   si1_1   Si     0.339688     0.953759     0.490201
   si1_1   Si     0.291926     0.927820     0.524610
   si1_1   Si     0.295804     0.961108     0.522289
   si1_1   Si     0.285893     0.924726     0.470172
   si1_1   Si     0.289770     0.958015     0.467851
   si1_1   Si     0.242009     0.932076     0.502260
   si1_1   Si     0.245886     0.965364     0.499938
   si1_1   Si     0.278446     0.972592     0.495919
   si1_1   Si     0.234562     0.979941     0.528006
   si1_1   Si     0.228528     0.976848     0.473568
   si1_1   Si     0.559235     0.708891     0.424501
   si1_1   Si     0.563113     0.742179     0.422179
   si1_1   Si     0.551788     0.756756     0.450247
   si1_1   Si     0.555666     0.790045     0.447926
   si1_1   Si     0.545755     0.753663     0.395810
   si1_1   Si     0.549633     0.786951     0.393488
   si1_1   Si     0.501871     0.761012     0.427897
   si1_1   Si     0.505748     0.794301     0.425575
   si1_1   Si     0.538308     0.801528     0.421556
   si1_1   Si     0.542186     0.834816     0.419235
   si1_1   Si     0.494424     0.808878     0.453643
   si1_1   Si     0.498302     0.842166     0.451322
   si1_1   Si     0.488390     0.805784     0.399206
   si1_1   Si     0.492268     0.839072     0.396884
   si1_1   Si     0.444506     0.813134     0.431293
   si1_1   Si     0.448384     0.846422     0.428972
   si1_1   Si     0.480944     0.853650     0.424952
   si1_1   Si     0.484821     0.886938     0.422631
   si1_1   Si     0.437059     0.860999     0.457039
   si1_1   Si     0.440937     0.894288     0.454718
   si1_1   Si     0.431026     0.857906     0.402602
   si1_1   Si     0.434903     0.891194     0.400280
   si1_1   Si     0.387142     0.865255     0.434689
   si1_1   Si     0.391019     0.898544     0.432368
   si1_1   Si     0.423579     0.905771     0.428348
   si1_1   Si     0.427457     0.939059     0.426027
   si1_1   Si     0.379695     0.913121     0.460435
   si1_1   Si     0.383572     0.946409     0.458114
   si1_1   Si     0.373661     0.910027     0.405998
   si1_1   Si     0.377539     0.943315     0.403676
   si1_1   Si     0.329777     0.917377     0.438085
   si1_1   Si     0.333655     0.950665     0.435764
   si1_1   Si     0.366214     0.957893     0.431744
   si1_1   Si     0.370092     0.991181     0.429423
   si1_1   Si     0.322330     0.965242     0.463831
   si1_1   Si     0.326208     0.998531     0.461510
   si1_1   Si     0.316297     0.962149     0.409394
   si1_1   Si     0.320174     0.995437     0.407072
   si1_1   Si     0.272412     0.969498     0.441481
   si1_1   Si     0.589639     0.746313     0.363722
   si1_1   Si     0.593517     0.779601     0.361401
   si1_1   Si     0.629954     0.820117     0.355060
   si1_1   Si     0.582192     0.794179     0.389469
   si1_1   Si     0.586070     0.827467     0.387147
   si1_1   Si     0.576159     0.791085     0.335031
   si1_1   Si     0.580036     0.824373     0.332710
   si1_1   Si     0.532275     0.798435     0.367118
   si1_1   Si     0.536152     0.831723     0.364797
   si1_1   Si     0.568712     0.838951     0.360777
   si1_1   Si     0.572590     0.872239     0.358456
   si1_1   Si     0.524828     0.846300     0.392865
   si1_1   Si     0.528705     0.879588     0.390543
   si1_1   Si     0.518794     0.843207     0.338427
   si1_1   Si     0.522672     0.876495     0.336106
   si1_1   Si     0.474910     0.850556     0.370514
   si1_1   Si     0.478788     0.883844     0.368193
   si1_1   Si     0.511347     0.891072     0.364173
   si1_1   Si     0.515225     0.924360     0.361852
   si1_1   Si     0.467463     0.898422     0.396261
   si1_1   Si     0.471341     0.931710     0.393939
   si1_1   Si     0.461430     0.895328     0.341823
   si1_1   Si     0.465307     0.928616     0.339502
   si1_1   Si     0.417545     0.902678     0.373910
   si1_1   Si     0.421423     0.935966     0.371589
   si1_1   Si     0.453983     0.943194     0.367569
   si1_1   Si     0.457861     0.976482     0.365248
   si1_1   Si     0.410099     0.950543     0.399657
   si1_1   Si     0.413976     0.983831     0.397335
   si1_1   Si     0.404065     0.947450     0.345219
   si1_1   Si     0.407943     0.980738     0.342898
   si1_1   Si     0.360181     0.954799     0.377306
   si1_1   Si     0.364058     0.988087     0.374985
   si1_1   Si     0.396618     0.995315     0.370965
   si1_1   Si     0.620043     0.783736     0.302944
   si1_1   Si     0.623921     0.817024     0.300622
   si1_1   Si     0.612596     0.831601     0.328690
   si1_1   Si     0.616474     0.864889     0.326369
   si1_1   Si     0.606563     0.828507     0.274252
   si1_1   Si     0.610440     0.861796     0.271931
   si1_1   Si     0.562678     0.835857     0.306340
   si1_1   Si     0.566556     0.869145     0.304018
   si1_1   Si     0.599116     0.876373     0.299999
   si1_1   Si     0.602994     0.909661     0.297677
   si1_1   Si     0.555232     0.883723     0.332086
   si1_1   Si     0.559109     0.917011     0.329765
   si1_1   Si     0.549198     0.880629     0.277648
   si1_1   Si     0.553076     0.913917     0.275327
   si1_1   Si     0.505314     0.887979     0.309736
   si1_1   Si     0.509192     0.921267     0.307414
   si1_1   Si     0.541751     0.928494     0.303395
   si1_1   Si     0.545629     0.961783     0.301073
   si1_1   Si     0.497867     0.935844     0.335482
   si1_1   Si     0.501745     0.969132     0.333161
   si1_1   Si     0.491834     0.932750     0.281044
   si1_1   Si     0.495711     0.966039     0.278723
   si1_1   Si     0.447949     0.940100     0.313132
   si1_1   Si     0.451827     0.973388     0.310810
   si1_1   Si     0.484387     0.980616     0.306791
   si1_1   Si     0.440503     0.987966     0.338878
   si1_1   Si     0.434469     0.984872     0.284440
   si1_1   Si     0.390585     0.992222     0.316528
   si1_1   Si     0.643000     0.869023     0.267911
   si1_1   Si     0.636967     0.865930     0.213474
   si1_1   Si     0.593082     0.873279     0.245561
   si1_1   Si     0.596960     0.906568     0.243240
   si1_1   Si     0.585636     0.921145     0.271307
   si1_1   Si     0.579602     0.918051     0.216870
   si1_1   Si     0.535718     0.925401     0.248957
   si1_1   Si     0.528271     0.973266     0.274703
   si1_1   Si     0.478353     0.977522     0.252353
   si1_1   Si     0.324921     0.841369     0.636430
   si1_1   Si     0.328798     0.874658     0.634109
   si1_1   Si     0.281036     0.848719     0.668518
   si1_1   Si     0.284914     0.882007     0.666196
   si1_1   Si     0.267556     0.893491     0.639826
   si1_1   Si     0.271434     0.926779     0.637505
   si1_1   Si     0.412689     0.826670     0.572256
   si1_1   Si     0.368805     0.834020     0.604343
   si1_1   Si     0.372682     0.867308     0.602022
   si1_1   Si     0.355324     0.878792     0.575652
   si1_1   Si     0.359202     0.912080     0.573330
   si1_1   Si     0.311440     0.886141     0.607739
   si1_1   Si     0.315318     0.919430     0.605418
   si1_1   Si     0.347878     0.926657     0.601398
   si1_1   Si     0.351755     0.959946     0.599077
   si1_1   Si     0.303993     0.934007     0.633486
   si1_1   Si     0.307871     0.967295     0.631164
   si1_1   Si     0.297960     0.930913     0.579048
   si1_1   Si     0.301837     0.964202     0.576726
   si1_1   Si     0.254076     0.938263     0.611135
   si1_1   Si     0.290513     0.978779     0.604794
   si1_1   Si     0.443093     0.864093     0.511477
   si1_1   Si     0.446970     0.897381     0.509156
   si1_1   Si     0.399209     0.871442     0.543564
   si1_1   Si     0.403086     0.904731     0.541243
   si1_1   Si     0.435646     0.911958     0.537224
   si1_1   Si     0.439524     0.945247     0.534902
   si1_1   Si     0.391762     0.919308     0.569311
   si1_1   Si     0.395639     0.952596     0.566989
   si1_1   Si     0.385728     0.916214     0.514873
   si1_1   Si     0.389606     0.949503     0.512552
   si1_1   Si     0.341844     0.923564     0.546960
   si1_1   Si     0.345722     0.956852     0.544639
   si1_1   Si     0.378282     0.964080     0.540620
   si1_1   Si     0.382159     0.997368     0.538298
   si1_1   Si     0.334397     0.971429     0.572707
   si1_1   Si     0.328364     0.968336     0.518269
   si1_1   Si     0.284480     0.975685     0.550357
   si1_1   Si     0.530861     0.849394     0.447302
   si1_1   Si     0.534739     0.882682     0.444981
   si1_1   Si     0.486977     0.856743     0.479390
   si1_1   Si     0.490855     0.890032     0.477068
   si1_1   Si     0.523415     0.897259     0.473049
   si1_1   Si     0.479530     0.904609     0.505136
   si1_1   Si     0.483408     0.937897     0.502815
   si1_1   Si     0.473497     0.901515     0.450698
   si1_1   Si     0.477374     0.934803     0.448377
   si1_1   Si     0.429613     0.908865     0.482786
   si1_1   Si     0.433490     0.942153     0.480464
   si1_1   Si     0.466050     0.949381     0.476445
   si1_1   Si     0.469928     0.982669     0.474123
   si1_1   Si     0.422166     0.956730     0.508532
   si1_1   Si     0.426043     0.990019     0.506211
   si1_1   Si     0.416132     0.953637     0.454095
   si1_1   Si     0.420010     0.986925     0.451773
   si1_1   Si     0.372248     0.960986     0.486182
   si1_1   Si     0.376126     0.994275     0.483860
   si1_1   Si     0.618630     0.834695     0.383128
   si1_1   Si     0.622507     0.867983     0.380806
   si1_1   Si     0.574746     0.842044     0.415215
   si1_1   Si     0.578623     0.875332     0.412894
   si1_1   Si     0.561265     0.886816     0.386524
   si1_1   Si     0.565143     0.920104     0.384202
   si1_1   Si     0.517381     0.894166     0.418611
   si1_1   Si     0.521259     0.927454     0.416290
   si1_1   Si     0.553818     0.934682     0.412270
   si1_1   Si     0.557696     0.967970     0.409949
   si1_1   Si     0.509934     0.942031     0.444358
   si1_1   Si     0.513812     0.975319     0.442036
   si1_1   Si     0.503901     0.938938     0.389920
   si1_1   Si     0.507778     0.972226     0.387598
   si1_1   Si     0.460016     0.946287     0.422007
   si1_1   Si     0.463894     0.979575     0.419686
   si1_1   Si     0.496454     0.986803     0.415666
   si1_1   Si     0.452570     0.994153     0.447754
   si1_1   Si     0.446536     0.991059     0.393316
   si1_1   Si     0.402652     0.998409     0.425403
   si1_1   Si     0.649034     0.872117     0.322349
   si1_1   Si     0.605150     0.879467     0.354436
   si1_1   Si     0.609027     0.912755     0.352115
   si1_1   Si     0.597703     0.927332     0.380183
   si1_1   Si     0.591669     0.924238     0.325745
   si1_1   Si     0.547785     0.931588     0.357833
   si1_1   Si     0.551663     0.964876     0.355511
   si1_1   Si     0.540338     0.979454     0.383579
   si1_1   Si     0.534305     0.976360     0.329141
   si1_1   Si     0.490420     0.983710     0.361229
   si1_1   Si     0.340431     0.974523     0.627145
   si1_1   Si     0.458603     0.997246     0.502191
   si1_1   Si     0.546372     0.982547     0.438017
   si1_1   Si     0.502487     0.989897     0.470104
   si1_1   Si     0.999143     0.261136     0.817001
   si1_1   Si     0.969259     0.213904     0.763196
   si1_1   Si     0.993128     0.368698     0.837784
   si1_1   Si     0.996136     0.314917     0.827393
   si1_1   Si     0.995176     0.321236     0.794412
   si1_1   Si     0.963244     0.321466     0.783979
   si1_1   Si     0.998184     0.267455     0.784021
   si1_1   Si     0.966252     0.267685     0.773588
   si1_1   Si     0.933360     0.274234     0.730175
   si1_1   Si     0.992169     0.375017     0.804804
   si1_1   Si     0.960237     0.375247     0.794371
   si1_1   Si     0.976267     0.357720     0.744921
   si1_1   Si     0.959277     0.381566     0.761391
   si1_1   Si     0.927346     0.381796     0.750958
   si1_1   Si     0.962285     0.327785     0.750999
   si1_1   Si     0.930353     0.328015     0.740566
   si1_1   Si     0.979112     0.081066     0.874334
   si1_1   Si     0.982120     0.027285     0.863942
   si1_1   Si     0.995143     0.063539     0.824884
   si1_1   Si     0.998150     0.009758     0.814493
   si1_1   Si     0.981160     0.033604     0.830962
   si1_1   Si     0.949228     0.033834     0.820529
   si1_1   Si     0.973097     0.188629     0.895117
   si1_1   Si     0.976105     0.134848     0.884725
   si1_1   Si     0.989128     0.171101     0.845667
   si1_1   Si     0.992135     0.117320     0.835276
   si1_1   Si     0.975145     0.141166     0.851745
   si1_1   Si     0.943214     0.141397     0.841312
   si1_1   Si     0.978153     0.087385     0.841354
   si1_1   Si     0.946221     0.087615     0.830921
   si1_1   Si     0.991176     0.123639     0.802296
   si1_1   Si     0.959244     0.123869     0.791863
   si1_1   Si     0.962251     0.070088     0.781471
   si1_1   Si     0.945261     0.093934     0.797940
   si1_1   Si     0.913330     0.094164     0.787507
   si1_1   Si     0.948269     0.040153     0.787549
   si1_1   Si     0.916337     0.040383     0.777116
   si1_1   Si     0.883446     0.046932     0.733703
   si1_1   Si     0.996967     0.343423     0.969705
   si1_1   Si     0.999014     0.295961     0.926333
   si1_1   Si     0.967083     0.296191     0.915900
   si1_1   Si     0.970090     0.242410     0.905509
   si1_1   Si     0.983113     0.278663     0.866451
   si1_1   Si     0.986120     0.224882     0.856059
   si1_1   Si     0.969130     0.248729     0.872528
   si1_1   Si     0.937199     0.248959     0.862095
   si1_1   Si     0.972138     0.194947     0.862137
   si1_1   Si     0.940206     0.195178     0.851704
   si1_1   Si     0.985161     0.231201     0.823079
   si1_1   Si     0.953229     0.231431     0.812646
   si1_1   Si     0.988168     0.177420     0.812687
   si1_1   Si     0.956236     0.177650     0.802254
   si1_1   Si     0.939247     0.201496     0.818724
   si1_1   Si     0.907315     0.201727     0.808291
   si1_1   Si     0.942254     0.147715     0.808332
   si1_1   Si     0.910322     0.147946     0.797899
   si1_1   Si     0.955277     0.183969     0.769274
   si1_1   Si     0.923345     0.184199     0.758841
   si1_1   Si     0.926352     0.130418     0.748449
   si1_1   Si     0.909363     0.154264     0.764919
   si1_1   Si     0.877431     0.154495     0.754486
   si1_1   Si     0.912370     0.100483     0.754527
   si1_1   Si     0.880438     0.100713     0.744094
   si1_1   Si     0.847547     0.107262     0.700681
   si1_1   Si     0.993959     0.397204     0.980096
   si1_1   Si     0.993000     0.403523     0.947116
   si1_1   Si     0.961068     0.403753     0.936683
   si1_1   Si     0.996007     0.349742     0.936725
   si1_1   Si     0.964075     0.349972     0.926292
   si1_1   Si     0.977098     0.386226     0.887234
   si1_1   Si     0.980105     0.332445     0.876842
   si1_1   Si     0.963116     0.356291     0.893311
   si1_1   Si     0.931184     0.356521     0.882878
   si1_1   Si     0.966123     0.302510     0.882920
   si1_1   Si     0.934191     0.302740     0.872487
   si1_1   Si     0.979146     0.338763     0.843862
   si1_1   Si     0.947214     0.338994     0.833429
   si1_1   Si     0.982153     0.284982     0.833470
   si1_1   Si     0.950222     0.285212     0.823037
   si1_1   Si     0.933232     0.309059     0.839507
   si1_1   Si     0.901300     0.309289     0.829074
   si1_1   Si     0.936239     0.255278     0.829115
   si1_1   Si     0.904307     0.255508     0.818682
   si1_1   Si     0.949262     0.291531     0.790057
   si1_1   Si     0.917330     0.291761     0.779624
   si1_1   Si     0.952269     0.237750     0.779666
   si1_1   Si     0.920338     0.237980     0.769233
   si1_1   Si     0.903348     0.261827     0.785702
   si1_1   Si     0.871416     0.262057     0.775269
   si1_1   Si     0.906355     0.208045     0.775310
   si1_1   Si     0.874423     0.208276     0.764877
   si1_1   Si     0.919378     0.244299     0.736252
   si1_1   Si     0.887446     0.244529     0.725819
   si1_1   Si     0.890454     0.190748     0.715428
   si1_1   Si     0.873464     0.214594     0.731897
   si1_1   Si     0.841532     0.214825     0.721464
   si1_1   Si     0.876471     0.160813     0.721506
   si1_1   Si     0.844539     0.161044     0.711073
   si1_1   Si     0.811648     0.167593     0.667659
   si1_1   Si     0.960108     0.410072     0.903703
   si1_1   Si     0.928176     0.410302     0.893270
   si1_1   Si     0.976138     0.392544     0.854253
   si1_1   Si     0.944207     0.392775     0.843820
   si1_1   Si     0.927217     0.416621     0.860290
   si1_1   Si     0.895285     0.416851     0.849857
   si1_1   Si     0.930224     0.362840     0.849898
   si1_1   Si     0.898293     0.363070     0.839465
   si1_1   Si     0.943247     0.399093     0.810840
   si1_1   Si     0.911315     0.399324     0.800407
   si1_1   Si     0.946255     0.345312     0.800449
   si1_1   Si     0.914323     0.345543     0.790016
   si1_1   Si     0.897333     0.369389     0.806485
   si1_1   Si     0.865401     0.369619     0.796052
   si1_1   Si     0.900340     0.315608     0.796093
   si1_1   Si     0.868409     0.315838     0.785660
   si1_1   Si     0.913363     0.351861     0.757035
   si1_1   Si     0.916371     0.298080     0.746644
   si1_1   Si     0.884439     0.298310     0.736211
   si1_1   Si     0.867449     0.322157     0.752680
   si1_1   Si     0.870456     0.268376     0.742289
   si1_1   Si     0.838525     0.268606     0.731856
   si1_1   Si     0.840572     0.221143     0.688484
   si1_1   Si     0.894326     0.423170     0.816877
   si1_1   Si     0.985958     0.002010     0.995863
   si1_1   Si     0.998981     0.038264     0.956805
   si1_1   Si     0.984998     0.008329     0.962883
   si1_1   Si     0.953067     0.008559     0.952450
   si1_1   Si     0.992966     0.145826     0.977588
   si1_1   Si     0.995973     0.092045     0.967197
   si1_1   Si     0.978984     0.115891     0.983666
   si1_1   Si     0.947052     0.116122     0.973233
   si1_1   Si     0.981991     0.062110     0.973274
   si1_1   Si     0.950059     0.062340     0.962841
   si1_1   Si     0.995014     0.098364     0.934216
   si1_1   Si     0.963082     0.098594     0.923783
   si1_1   Si     0.998021     0.044583     0.923825
   si1_1   Si     0.966090     0.044813     0.913392
   si1_1   Si     0.949100     0.068659     0.929861
   si1_1   Si     0.917168     0.068889     0.919428
   si1_1   Si     0.952107     0.014878     0.919470
   si1_1   Si     0.920175     0.015108     0.909037
   si1_1   Si     0.965130     0.051132     0.880412
   si1_1   Si     0.933198     0.051362     0.869979
   si1_1   Si     0.919216     0.021427     0.876056
   si1_1   Si     0.887284     0.021657     0.865623
   si1_1   Si     0.935246     0.003900     0.826607
   si1_1   Si     0.903314     0.004130     0.816174
   si1_1   Si     0.986951     0.253388     0.998371
   si1_1   Si     0.989959     0.199607     0.987980
   si1_1   Si     0.941037     0.223684     0.994016
   si1_1   Si     0.975976     0.169672     0.994057
   si1_1   Si     0.944044     0.169903     0.983624
   si1_1   Si     0.988999     0.205926     0.955000
   si1_1   Si     0.957067     0.206156     0.944566
   si1_1   Si     0.992006     0.152145     0.944608
   si1_1   Si     0.960075     0.152375     0.934175
   si1_1   Si     0.943085     0.176221     0.950644
   si1_1   Si     0.911153     0.176452     0.940211
   si1_1   Si     0.946092     0.122440     0.940253
   si1_1   Si     0.914161     0.122671     0.929820
   si1_1   Si     0.959115     0.158694     0.901195
   si1_1   Si     0.927183     0.158924     0.890762
   si1_1   Si     0.962123     0.104913     0.890803
   si1_1   Si     0.930191     0.105143     0.880370
   si1_1   Si     0.913201     0.128989     0.896840
   si1_1   Si     0.881269     0.129220     0.886406
   si1_1   Si     0.916208     0.075208     0.886448
   si1_1   Si     0.884277     0.075438     0.876015
   si1_1   Si     0.929231     0.111462     0.847390
   si1_1   Si     0.897299     0.111692     0.836957
   si1_1   Si     0.932239     0.057681     0.836998
   si1_1   Si     0.900307     0.057911     0.826565
   si1_1   Si     0.883317     0.081757     0.843035
   si1_1   Si     0.851385     0.081987     0.832602
   si1_1   Si     0.886324     0.027976     0.832643
   si1_1   Si     0.854393     0.028206     0.822210
   si1_1   Si     0.899347     0.064230     0.793585
   si1_1   Si     0.867415     0.064460     0.783152
   si1_1   Si     0.902355     0.010449     0.783194
   si1_1   Si     0.870423     0.010679     0.772761
   si1_1   Si     0.853433     0.034525     0.789230
   si1_1   Si     0.821501     0.034755     0.778797
   si1_1   Si     0.869463     0.016998     0.739780
   si1_1   Si     0.837531     0.017228     0.729347
   si1_1   Si     0.982984     0.313488     0.975783
   si1_1   Si     0.951052     0.313719     0.965350
   si1_1   Si     0.985992     0.259707     0.965391
   si1_1   Si     0.954060     0.259937     0.954958
   si1_1   Si     0.937070     0.283784     0.971427
   si1_1   Si     0.905138     0.284014     0.960994
   si1_1   Si     0.940077     0.230003     0.961036
   si1_1   Si     0.908146     0.230233     0.950603
   si1_1   Si     0.953100     0.266256     0.921978
   si1_1   Si     0.921168     0.266486     0.911545
   si1_1   Si     0.956108     0.212475     0.911586
   si1_1   Si     0.924176     0.212705     0.901153
   si1_1   Si     0.907186     0.236552     0.917623
   si1_1   Si     0.875254     0.236782     0.907190
   si1_1   Si     0.910194     0.182770     0.907231
   si1_1   Si     0.878262     0.183001     0.896798
   si1_1   Si     0.923216     0.219024     0.868173
   si1_1   Si     0.891285     0.219254     0.857740
   si1_1   Si     0.926224     0.165243     0.857782
   si1_1   Si     0.894292     0.165473     0.847348
   si1_1   Si     0.877302     0.189319     0.863818
   si1_1   Si     0.845370     0.189550     0.853385
   si1_1   Si     0.880310     0.135538     0.853426
   si1_1   Si     0.848378     0.135769     0.842993
   si1_1   Si     0.893332     0.171792     0.814368
   si1_1   Si     0.861401     0.172022     0.803935
   si1_1   Si     0.896340     0.118011     0.803977
   si1_1   Si     0.864408     0.118241     0.793544
   si1_1   Si     0.847418     0.142087     0.810013
   si1_1   Si     0.815486     0.142318     0.799580
   si1_1   Si     0.850426     0.088306     0.799621
   si1_1   Si     0.818494     0.088536     0.789188
   si1_1   Si     0.863448     0.124560     0.760564
   si1_1   Si     0.831517     0.124790     0.750130
   si1_1   Si     0.866456     0.070779     0.750172
   si1_1   Si     0.834524     0.071009     0.739739
   si1_1   Si     0.817534     0.094855     0.756208
   si1_1   Si     0.785602     0.095085     0.745775
   si1_1   Si     0.820542     0.041074     0.745817
   si1_1   Si     0.788610     0.041304     0.735384
   si1_1   Si     0.833564     0.077328     0.706759
   si1_1   Si     0.801633     0.077558     0.696326
   si1_1   Si     0.804640     0.023777     0.685934
   si1_1   Si     0.787650     0.047623     0.702403
   si1_1   Si     0.755719     0.047853     0.691970
   si1_1   Si     0.945038     0.421281     0.986133
   si1_1   Si     0.979977     0.367269     0.986174
   si1_1   Si     0.948045     0.367500     0.975741
   si1_1   Si     0.931055     0.391346     0.992211
   si1_1   Si     0.899123     0.391576     0.981777
   si1_1   Si     0.934063     0.337565     0.981819
   si1_1   Si     0.902131     0.337795     0.971386
   si1_1   Si     0.947085     0.373818     0.942761
   si1_1   Si     0.915154     0.374049     0.932328
   si1_1   Si     0.950093     0.320037     0.932369
   si1_1   Si     0.918161     0.320268     0.921936
   si1_1   Si     0.901171     0.344114     0.938406
   si1_1   Si     0.869240     0.344344     0.927973
   si1_1   Si     0.904179     0.290333     0.928014
   si1_1   Si     0.872247     0.290563     0.917581
   si1_1   Si     0.917202     0.326586     0.888956
   si1_1   Si     0.885270     0.326817     0.878523
   si1_1   Si     0.920209     0.272805     0.878565
   si1_1   Si     0.888277     0.273035     0.868132
   si1_1   Si     0.871287     0.296882     0.884601
   si1_1   Si     0.839356     0.297112     0.874168
   si1_1   Si     0.874295     0.243101     0.874209
   si1_1   Si     0.842363     0.243331     0.863776
   si1_1   Si     0.887318     0.279354     0.835151
   si1_1   Si     0.855386     0.279584     0.824718
   si1_1   Si     0.890325     0.225573     0.824760
   si1_1   Si     0.858393     0.225803     0.814327
   si1_1   Si     0.841403     0.249650     0.830796
   si1_1   Si     0.809472     0.249880     0.820363
   si1_1   Si     0.844411     0.195868     0.820405
   si1_1   Si     0.812479     0.196099     0.809972
   si1_1   Si     0.857434     0.232122     0.781347
   si1_1   Si     0.825502     0.232352     0.770914
   si1_1   Si     0.860441     0.178341     0.770955
   si1_1   Si     0.828509     0.178571     0.760522
   si1_1   Si     0.811519     0.202417     0.776991
   si1_1   Si     0.779588     0.202648     0.766558
   si1_1   Si     0.814527     0.148636     0.766600
   si1_1   Si     0.782595     0.148867     0.756167
   si1_1   Si     0.827550     0.184890     0.727542
   si1_1   Si     0.795618     0.185120     0.717109
   si1_1   Si     0.830557     0.131109     0.717150
   si1_1   Si     0.798625     0.131339     0.706717
   si1_1   Si     0.781635     0.155185     0.723187
   si1_1   Si     0.749704     0.155416     0.712754
   si1_1   Si     0.784643     0.101404     0.712795
   si1_1   Si     0.752711     0.101635     0.702362
   si1_1   Si     0.797666     0.137658     0.673737
   si1_1   Si     0.765734     0.137888     0.663304
   si1_1   Si     0.768741     0.084107     0.652912
   si1_1   Si     0.751752     0.107953     0.669382
   si1_1   Si     0.754759     0.054172     0.658990
   si1_1   Si     0.896116     0.445357     0.992169
   si1_1   Si     0.944078     0.427600     0.953153
   si1_1   Si     0.912146     0.427830     0.942720
   si1_1   Si     0.895156     0.451676     0.959189
   si1_1   Si     0.863225     0.451906     0.948756
   si1_1   Si     0.898164     0.397895     0.948797
   si1_1   Si     0.866232     0.398125     0.938364
   si1_1   Si     0.911187     0.434149     0.909739
   si1_1   Si     0.879255     0.434379     0.899306
   si1_1   Si     0.914194     0.380367     0.899348
   si1_1   Si     0.882262     0.380598     0.888915
   si1_1   Si     0.865273     0.404444     0.905384
   si1_1   Si     0.833341     0.404674     0.894951
   si1_1   Si     0.868280     0.350663     0.894993
   si1_1   Si     0.836348     0.350893     0.884559
   si1_1   Si     0.881303     0.386916     0.855935
   si1_1   Si     0.849371     0.387147     0.845502
   si1_1   Si     0.884310     0.333135     0.845543
   si1_1   Si     0.852378     0.333366     0.835110
   si1_1   Si     0.835389     0.357212     0.851579
   si1_1   Si     0.803457     0.357442     0.841146
   si1_1   Si     0.838396     0.303431     0.841188
   si1_1   Si     0.806464     0.303661     0.830755
   si1_1   Si     0.851419     0.339684     0.802130
   si1_1   Si     0.819487     0.339915     0.791697
   si1_1   Si     0.854426     0.285903     0.791738
   si1_1   Si     0.822494     0.286133     0.781305
   si1_1   Si     0.805505     0.309980     0.797775
   si1_1   Si     0.773573     0.310210     0.787341
   si1_1   Si     0.808512     0.256199     0.787383
   si1_1   Si     0.776580     0.256429     0.776950
   si1_1   Si     0.821535     0.292452     0.748325
   si1_1   Si     0.824542     0.238671     0.737933
   si1_1   Si     0.792610     0.238901     0.727500
   si1_1   Si     0.778628     0.208966     0.733578
   si1_1   Si     0.746696     0.209197     0.723145
   si1_1   Si     0.794658     0.191439     0.684129
   si1_1   Si     0.862265     0.458225     0.915776
   si1_1   Si     0.830333     0.458455     0.905343
   si1_1   Si     0.878295     0.440698     0.866326
   si1_1   Si     0.846364     0.440928     0.855893
   si1_1   Si     0.832381     0.410993     0.861971
   si1_1   Si     0.800449     0.411223     0.851538
   si1_1   Si     0.848411     0.393465     0.812521
   si1_1   Si     0.802497     0.363761     0.808166
   si1_1   Si     0.933070     0.086187     0.979311
   si1_1   Si     0.901138     0.086417     0.968878
   si1_1   Si     0.936077     0.032406     0.968919
   si1_1   Si     0.904145     0.032636     0.958486
   si1_1   Si     0.887155     0.056482     0.974955
   si1_1   Si     0.855224     0.056712     0.964522
   si1_1   Si     0.890163     0.002701     0.964564
   si1_1   Si     0.858231     0.002931     0.954131
   si1_1   Si     0.903186     0.038955     0.925506
   si1_1   Si     0.871254     0.039185     0.915073
   si1_1   Si     0.857271     0.009250     0.921151
   si1_1   Si     0.825340     0.009480     0.910718
   si1_1   Si     0.895123     0.193979     0.989661
   si1_1   Si     0.930062     0.139968     0.989702
   si1_1   Si     0.898130     0.140198     0.979269
   si1_1   Si     0.881141     0.164044     0.995739
   si1_1   Si     0.849209     0.164275     0.985306
   si1_1   Si     0.884148     0.110263     0.985347
   si1_1   Si     0.852216     0.110494     0.974914
   si1_1   Si     0.897171     0.146517     0.946289
   si1_1   Si     0.865239     0.146747     0.935856
   si1_1   Si     0.900178     0.092736     0.935897
   si1_1   Si     0.868246     0.092966     0.925464
   si1_1   Si     0.851257     0.116812     0.941934
   si1_1   Si     0.819325     0.117043     0.931501
   si1_1   Si     0.854264     0.063031     0.931542
   si1_1   Si     0.822332     0.063261     0.921109
   si1_1   Si     0.867287     0.099285     0.892484
   si1_1   Si     0.835355     0.099515     0.882051
   si1_1   Si     0.870294     0.045504     0.882093
   si1_1   Si     0.838362     0.045734     0.871660
   si1_1   Si     0.821373     0.069580     0.888129
   si1_1   Si     0.789441     0.069810     0.877696
   si1_1   Si     0.824380     0.015799     0.877737
   si1_1   Si     0.792448     0.016029     0.867304
   si1_1   Si     0.837403     0.052053     0.838679
   si1_1   Si     0.805471     0.052283     0.828246
   si1_1   Si     0.791489     0.022348     0.834324
   si1_1   Si     0.759557     0.022578     0.823891
   si1_1   Si     0.807519     0.004821     0.784875
   si1_1   Si     0.775587     0.005051     0.774442
   si1_1   Si     0.846201     0.218056     0.995697
   si1_1   Si     0.891156     0.254079     0.967072
   si1_1   Si     0.859224     0.254309     0.956639
   si1_1   Si     0.894163     0.200298     0.956681
   si1_1   Si     0.862232     0.200528     0.946248
   si1_1   Si     0.845242     0.224375     0.962717
   si1_1   Si     0.813310     0.224605     0.952284
   si1_1   Si     0.848249     0.170593     0.952325
   si1_1   Si     0.816317     0.170824     0.941892
   si1_1   Si     0.861272     0.206847     0.913267
   si1_1   Si     0.829340     0.207077     0.902834
   si1_1   Si     0.864279     0.153066     0.902876
   si1_1   Si     0.832348     0.153296     0.892443
   si1_1   Si     0.815358     0.177142     0.908912
   si1_1   Si     0.783426     0.177373     0.898479
   si1_1   Si     0.818365     0.123361     0.898521
   si1_1   Si     0.786433     0.123592     0.888088
   si1_1   Si     0.831388     0.159615     0.859463
   si1_1   Si     0.799456     0.159845     0.849030
   si1_1   Si     0.834395     0.105834     0.849071
   si1_1   Si     0.802464     0.106064     0.838638
   si1_1   Si     0.785474     0.129910     0.855107
   si1_1   Si     0.753542     0.130141     0.844674
   si1_1   Si     0.788481     0.076129     0.844716
   si1_1   Si     0.756549     0.076359     0.834283
   si1_1   Si     0.801504     0.112383     0.805658
   si1_1   Si     0.769572     0.112613     0.795225
   si1_1   Si     0.804511     0.058602     0.795266
   si1_1   Si     0.772580     0.058832     0.784833
   si1_1   Si     0.755590     0.082678     0.801303
   si1_1   Si     0.723658     0.082908     0.790870
   si1_1   Si     0.758597     0.028897     0.790911
   si1_1   Si     0.726666     0.029127     0.780478
   si1_1   Si     0.771620     0.065151     0.751853
   si1_1   Si     0.739688     0.065381     0.741420
   si1_1   Si     0.774628     0.011370     0.741461
   si1_1   Si     0.742696     0.011600     0.731028
   si1_1   Si     0.725706     0.035446     0.747498
   si1_1   Si     0.885141     0.361641     0.987855
   si1_1   Si     0.853209     0.361872     0.977422
   si1_1   Si     0.888148     0.307860     0.977464
   si1_1   Si     0.856217     0.308091     0.967031
   si1_1   Si     0.839227     0.331937     0.983500
   si1_1   Si     0.807295     0.332167     0.973067
   si1_1   Si     0.842234     0.278156     0.973108
   si1_1   Si     0.810303     0.278386     0.962675
   si1_1   Si     0.855257     0.314409     0.934050
   si1_1   Si     0.823325     0.314640     0.923617
   si1_1   Si     0.858265     0.260628     0.923659
   si1_1   Si     0.826333     0.260858     0.913226
   si1_1   Si     0.809343     0.284705     0.929695
   si1_1   Si     0.777411     0.284935     0.919262
   si1_1   Si     0.812350     0.230924     0.919304
   si1_1   Si     0.780419     0.231154     0.908871
   si1_1   Si     0.825373     0.267177     0.880246
   si1_1   Si     0.793441     0.267407     0.869813
   si1_1   Si     0.828381     0.213396     0.869854
   si1_1   Si     0.796449     0.213626     0.859421
   si1_1   Si     0.779459     0.237473     0.875890
   si1_1   Si     0.747527     0.237703     0.865457
   si1_1   Si     0.782466     0.183692     0.865499
   si1_1   Si     0.750535     0.183922     0.855066
   si1_1   Si     0.795489     0.219945     0.826441
   si1_1   Si     0.763557     0.220175     0.816008
   si1_1   Si     0.798497     0.166164     0.816049
   si1_1   Si     0.766565     0.166394     0.805616
   si1_1   Si     0.749575     0.190241     0.822086
   si1_1   Si     0.717643     0.190471     0.811653
   si1_1   Si     0.752582     0.136459     0.811694
   si1_1   Si     0.720651     0.136690     0.801261
   si1_1   Si     0.765605     0.172713     0.772636
   si1_1   Si     0.733673     0.172943     0.762203
   si1_1   Si     0.768613     0.118932     0.762245
   si1_1   Si     0.736681     0.119162     0.751812
   si1_1   Si     0.719691     0.143008     0.768281
   si1_1   Si     0.687759     0.143239     0.757848
   si1_1   Si     0.722699     0.089227     0.757889
   si1_1   Si     0.690767     0.089458     0.747456
   si1_1   Si     0.735721     0.125481     0.718831
   si1_1   Si     0.703790     0.125711     0.708398
   si1_1   Si     0.738729     0.071700     0.708440
   si1_1   Si     0.706797     0.071930     0.698007
   si1_1   Si     0.689807     0.095776     0.714476
   si1_1   Si     0.705837     0.078249     0.665027
   si1_1   Si     0.847194     0.469434     0.998205
   si1_1   Si     0.882134     0.415423     0.998247
   si1_1   Si     0.850202     0.415653     0.987814
   si1_1   Si     0.801280     0.439729     0.993850
   si1_1   Si     0.836220     0.385718     0.993892
   si1_1   Si     0.804288     0.385948     0.983459
   si1_1   Si     0.849242     0.421972     0.954834
   si1_1   Si     0.817311     0.422202     0.944401
   si1_1   Si     0.852250     0.368190     0.944442
   si1_1   Si     0.820318     0.368421     0.934009
   si1_1   Si     0.803328     0.392267     0.950478
   si1_1   Si     0.771396     0.392497     0.940045
   si1_1   Si     0.806336     0.338486     0.940087
   si1_1   Si     0.774404     0.338716     0.929654
   si1_1   Si     0.819358     0.374739     0.901029
   si1_1   Si     0.787427     0.374970     0.890596
   si1_1   Si     0.822366     0.320958     0.890637
   si1_1   Si     0.790434     0.321189     0.880204
   si1_1   Si     0.773444     0.345035     0.896674
   si1_1   Si     0.741512     0.345265     0.886241
   si1_1   Si     0.776452     0.291254     0.886282
   si1_1   Si     0.744520     0.291484     0.875849
   si1_1   Si     0.789474     0.327507     0.847224
   si1_1   Si     0.757543     0.327738     0.836791
   si1_1   Si     0.792482     0.273726     0.836832
   si1_1   Si     0.760550     0.273956     0.826399
   si1_1   Si     0.743560     0.297803     0.842869
   si1_1   Si     0.711628     0.298033     0.832436
   si1_1   Si     0.746568     0.244022     0.832477
   si1_1   Si     0.714636     0.244252     0.822044
   si1_1   Si     0.759590     0.280275     0.793419
   si1_1   Si     0.762598     0.226494     0.783028
   si1_1   Si     0.730666     0.226724     0.772595
   si1_1   Si     0.713676     0.250571     0.789064
   si1_1   Si     0.716684     0.196790     0.778672
   si1_1   Si     0.684752     0.197020     0.768239
   si1_1   Si     0.732714     0.179262     0.729223
   si1_1   Si     0.686800     0.149557     0.724868
   si1_1   Si     0.846235     0.475753     0.965225
   si1_1   Si     0.814303     0.475983     0.954792
   si1_1   Si     0.765382     0.500060     0.960828
   si1_1   Si     0.800321     0.446048     0.960870
   si1_1   Si     0.768389     0.446278     0.950437
   si1_1   Si     0.781412     0.482532     0.911379
   si1_1   Si     0.816351     0.428521     0.911420
   si1_1   Si     0.784419     0.428751     0.900987
   si1_1   Si     0.767429     0.452597     0.917457
   si1_1   Si     0.770437     0.398816     0.907065
   si1_1   Si     0.738505     0.399046     0.896632
   si1_1   Si     0.786467     0.381288     0.857616
   si1_1   Si     0.754535     0.381519     0.847183
   si1_1   Si     0.740553     0.351584     0.853260
   si1_1   Si     0.841241     0.026778     0.970600
   si1_1   Si     0.809309     0.027008     0.960167
   si1_1   Si     0.835226     0.134340     0.991383
   si1_1   Si     0.803295     0.134570     0.980950
   si1_1   Si     0.838234     0.080559     0.980992
   si1_1   Si     0.806302     0.080789     0.970559
   si1_1   Si     0.789312     0.104635     0.987028
   si1_1   Si     0.757380     0.104866     0.976595
   si1_1   Si     0.792320     0.050854     0.976636
   si1_1   Si     0.760388     0.051084     0.966203
   si1_1   Si     0.805342     0.087108     0.937579
   si1_1   Si     0.773411     0.087338     0.927145
   si1_1   Si     0.808350     0.033327     0.927187
   si1_1   Si     0.776418     0.033557     0.916754
   si1_1   Si     0.759428     0.057403     0.933223
   si1_1   Si     0.727496     0.057633     0.922790
   si1_1   Si     0.762436     0.003622     0.922832
   si1_1   Si     0.730504     0.003852     0.912399
   si1_1   Si     0.775458     0.039876     0.883774
   si1_1   Si     0.743527     0.040106     0.873341
   si1_1   Si     0.729544     0.010171     0.879418
   si1_1   Si     0.697613     0.010401     0.868985
   si1_1   Si     0.800287     0.188351     0.991342
   si1_1   Si     0.751366     0.212428     0.997378
   si1_1   Si     0.786305     0.158416     0.997420
   si1_1   Si     0.754373     0.158647     0.986987
   si1_1   Si     0.799328     0.194670     0.958362
   si1_1   Si     0.767396     0.194900     0.947929
   si1_1   Si     0.802335     0.140889     0.947970
   si1_1   Si     0.770403     0.141119     0.937537
   si1_1   Si     0.753413     0.164965     0.954006
   si1_1   Si     0.721482     0.165196     0.943573
   si1_1   Si     0.756421     0.111184     0.943615
   si1_1   Si     0.724489     0.111415     0.933182
   si1_1   Si     0.769444     0.147438     0.904557
   si1_1   Si     0.737512     0.147668     0.894124
   si1_1   Si     0.772451     0.093657     0.894165
   si1_1   Si     0.740519     0.093887     0.883732
   si1_1   Si     0.723529     0.117733     0.900202
   si1_1   Si     0.691598     0.117964     0.889769
   si1_1   Si     0.726537     0.063952     0.889810
   si1_1   Si     0.694605     0.064183     0.879377
   si1_1   Si     0.739560     0.100206     0.850752
   si1_1   Si     0.707628     0.100436     0.840319
   si1_1   Si     0.742567     0.046425     0.840361
   si1_1   Si     0.710635     0.046655     0.829927
   si1_1   Si     0.693646     0.070501     0.846397
   si1_1   Si     0.661714     0.070732     0.835964
   si1_1   Si     0.696653     0.016720     0.836005
   si1_1   Si     0.709676     0.052974     0.796947
   si1_1   Si     0.677744     0.053204     0.786514
   si1_1   Si     0.793313     0.302232     0.979145
   si1_1   Si     0.761381     0.302463     0.968712
   si1_1   Si     0.796320     0.248451     0.968753
   si1_1   Si     0.764388     0.248681     0.958320
   si1_1   Si     0.747399     0.272528     0.974790
   si1_1   Si     0.715467     0.272758     0.964356
   si1_1   Si     0.750406     0.218747     0.964398
   si1_1   Si     0.718474     0.218977     0.953965
   si1_1   Si     0.763429     0.255000     0.925340
   si1_1   Si     0.731497     0.255230     0.914907
   si1_1   Si     0.766436     0.201219     0.914948
   si1_1   Si     0.734504     0.201449     0.904515
   si1_1   Si     0.717515     0.225296     0.920985
   si1_1   Si     0.685583     0.225526     0.910552
   si1_1   Si     0.720522     0.171515     0.910593
   si1_1   Si     0.688590     0.171745     0.900160
   si1_1   Si     0.733545     0.207768     0.871535
   si1_1   Si     0.701613     0.207998     0.861102
   si1_1   Si     0.736552     0.153987     0.861144
   si1_1   Si     0.704620     0.154217     0.850711
   si1_1   Si     0.687631     0.178064     0.867180
   si1_1   Si     0.655699     0.178294     0.856747
   si1_1   Si     0.690638     0.124282     0.856788
   si1_1   Si     0.658706     0.124513     0.846355
   si1_1   Si     0.703661     0.160536     0.817730
   si1_1   Si     0.671729     0.160766     0.807297
   si1_1   Si     0.706668     0.106755     0.807339
   si1_1   Si     0.674737     0.106985     0.796906
   si1_1   Si     0.657747     0.130831     0.813375
   si1_1   Si     0.625815     0.131062     0.802942
   si1_1   Si     0.660754     0.077050     0.802984
   si1_1   Si     0.628822     0.077281     0.792551
   si1_1   Si     0.673777     0.113304     0.763926
   si1_1   Si     0.641845     0.113534     0.753493
   si1_1   Si     0.676784     0.059523     0.753534
   si1_1   Si     0.755366     0.410025     0.989495
   si1_1   Si     0.790305     0.356013     0.989536
   si1_1   Si     0.758374     0.356244     0.979103
   si1_1   Si     0.741384     0.380090     0.995573
   si1_1   Si     0.709452     0.380320     0.985140
   si1_1   Si     0.744391     0.326309     0.985181
   si1_1   Si     0.712459     0.326539     0.974748
   si1_1   Si     0.757414     0.362562     0.946123
   si1_1   Si     0.725482     0.362793     0.935690
   si1_1   Si     0.760421     0.308781     0.935732
   si1_1   Si     0.728490     0.309012     0.925299
   si1_1   Si     0.711500     0.332858     0.941768
   si1_1   Si     0.679568     0.333088     0.931335
   si1_1   Si     0.714507     0.279077     0.931376
   si1_1   Si     0.682575     0.279307     0.920943
   si1_1   Si     0.727530     0.315330     0.892318
   si1_1   Si     0.695598     0.315561     0.881885
   si1_1   Si     0.730537     0.261549     0.881927
   si1_1   Si     0.698606     0.261779     0.871494
   si1_1   Si     0.681616     0.285626     0.887963
   si1_1   Si     0.649684     0.285856     0.877530
   si1_1   Si     0.684623     0.231845     0.877572
   si1_1   Si     0.652691     0.232075     0.867138
   si1_1   Si     0.697646     0.268098     0.838514
   si1_1   Si     0.665714     0.268328     0.828080
   si1_1   Si     0.700653     0.214317     0.828122
   si1_1   Si     0.668722     0.214547     0.817689
   si1_1   Si     0.651732     0.238394     0.834158
   si1_1   Si     0.619800     0.238624     0.823725
   si1_1   Si     0.654739     0.184613     0.823767
   si1_1   Si     0.622808     0.184843     0.813334
   si1_1   Si     0.667762     0.220866     0.784709
   si1_1   Si     0.670770     0.167085     0.774317
   si1_1   Si     0.638838     0.167315     0.763884
   si1_1   Si     0.621848     0.191162     0.780354
   si1_1   Si     0.624855     0.137380     0.769962
   si1_1   Si     0.592924     0.137611     0.759529
   si1_1   Si     0.640886     0.119853     0.720512
   si1_1   Si     0.751399     0.470125     0.966906
   si1_1   Si     0.719467     0.470355     0.956473
   si1_1   Si     0.754407     0.416344     0.956515
   si1_1   Si     0.722475     0.416574     0.946082
   si1_1   Si     0.705485     0.440420     0.962551
   si1_1   Si     0.708492     0.386639     0.952159
   si1_1   Si     0.676561     0.386869     0.941726
   si1_1   Si     0.721515     0.422893     0.913101
   si1_1   Si     0.724523     0.369111     0.902710
   si1_1   Si     0.692591     0.369342     0.892277
   si1_1   Si     0.675601     0.393188     0.908746
   si1_1   Si     0.678608     0.339407     0.898355
   si1_1   Si     0.646677     0.339637     0.887922
   si1_1   Si     0.694639     0.321879     0.848905
   si1_1   Si     0.648725     0.292175     0.844550
   si1_1   Si     0.743398     0.074931     0.982673
   si1_1   Si     0.711466     0.075161     0.972240
   si1_1   Si     0.746405     0.021150     0.972281
   si1_1   Si     0.714474     0.021380     0.961848
   si1_1   Si     0.697484     0.045226     0.978318
   si1_1   Si     0.665552     0.045457     0.967885
   si1_1   Si     0.713514     0.027699     0.928868
   si1_1   Si     0.681582     0.027929     0.918435
   si1_1   Si     0.705451     0.182723     0.993023
   si1_1   Si     0.740391     0.128712     0.993064
   si1_1   Si     0.708459     0.128942     0.982631
   si1_1   Si     0.691469     0.152789     0.999101
   si1_1   Si     0.659537     0.153019     0.988668
   si1_1   Si     0.694476     0.099007     0.988709
   si1_1   Si     0.662545     0.099238     0.978276
   si1_1   Si     0.707499     0.135261     0.949651
   si1_1   Si     0.675567     0.135491     0.939218
   si1_1   Si     0.710507     0.081480     0.939260
   si1_1   Si     0.678575     0.081710     0.928827
   si1_1   Si     0.661585     0.105556     0.945296
   si1_1   Si     0.629653     0.105787     0.934863
   si1_1   Si     0.664593     0.051775     0.934904
   si1_1   Si     0.632661     0.052006     0.924471
   si1_1   Si     0.677615     0.088029     0.895846
   si1_1   Si     0.645684     0.088259     0.885413
   si1_1   Si     0.680623     0.034248     0.885455
   si1_1   Si     0.648691     0.034478     0.875022
   si1_1   Si     0.631701     0.058324     0.891491
   si1_1   Si     0.599769     0.058555     0.881058
   si1_1   Si     0.647731     0.040797     0.842042
   si1_1   Si     0.656530     0.206800     0.999059
   si1_1   Si     0.701484     0.242823     0.970434
   si1_1   Si     0.669553     0.243053     0.960001
   si1_1   Si     0.704492     0.189042     0.960043
   si1_1   Si     0.672560     0.189272     0.949610
   si1_1   Si     0.655570     0.213119     0.966079
   si1_1   Si     0.623638     0.213349     0.955646
   si1_1   Si     0.658578     0.159338     0.955687
   si1_1   Si     0.626646     0.159568     0.945254
   si1_1   Si     0.671600     0.195591     0.916629
   si1_1   Si     0.639669     0.195821     0.906196
   si1_1   Si     0.674608     0.141810     0.906238
   si1_1   Si     0.642676     0.142040     0.895805
   si1_1   Si     0.625686     0.165887     0.912274
   si1_1   Si     0.593755     0.166117     0.901841
   si1_1   Si     0.628694     0.112105     0.901883
   si1_1   Si     0.596762     0.112336     0.891450
   si1_1   Si     0.641717     0.148359     0.862825
   si1_1   Si     0.609785     0.148589     0.852392
   si1_1   Si     0.644724     0.094578     0.852433
   si1_1   Si     0.612792     0.094808     0.842000
   si1_1   Si     0.595802     0.118654     0.858469
   si1_1   Si     0.563871     0.118885     0.848036
   si1_1   Si     0.611833     0.101127     0.809020
   si1_1   Si     0.695470     0.350385     0.991217
   si1_1   Si     0.698477     0.296604     0.980826
   si1_1   Si     0.666545     0.296835     0.970393
   si1_1   Si     0.652563     0.266900     0.976471
   si1_1   Si     0.620631     0.267130     0.966038
   si1_1   Si     0.665586     0.303153     0.937413
   si1_1   Si     0.633654     0.303384     0.926980
   si1_1   Si     0.668593     0.249372     0.927021
   si1_1   Si     0.636661     0.249602     0.916588
   si1_1   Si     0.619671     0.273449     0.933057
   si1_1   Si     0.587740     0.273679     0.922624
   si1_1   Si     0.622679     0.219668     0.922666
   si1_1   Si     0.590747     0.219898     0.912233
   si1_1   Si     0.635702     0.255921     0.883608
   si1_1   Si     0.603770     0.256151     0.873175
   si1_1   Si     0.638709     0.202140     0.873216
   si1_1   Si     0.606777     0.202370     0.862783
   si1_1   Si     0.589788     0.226217     0.879253
   si1_1   Si     0.557856     0.226447     0.868820
   si1_1   Si     0.592795     0.172436     0.868861
   si1_1   Si     0.560863     0.172666     0.858428
   si1_1   Si     0.605818     0.208689     0.829803
   si1_1   Si     0.608825     0.154908     0.819411
   si1_1   Si     0.576893     0.155138     0.808978
   si1_1   Si     0.559904     0.178985     0.825448
   si1_1   Si     0.562911     0.125203     0.815056
   si1_1   Si     0.662578     0.356934     0.947804
   si1_1   Si     0.630646     0.357165     0.937371
   si1_1   Si     0.616664     0.327230     0.943449
   si1_1   Si     0.629687     0.363483     0.904391
   si1_1   Si     0.632694     0.309702     0.893999
   si1_1   Si     0.600763     0.309933     0.883566
   si1_1   Si     0.586780     0.279998     0.889644
   si1_1   Si     0.651570     0.015522     0.973962
   si1_1   Si     0.619638     0.015752     0.963529
   si1_1   Si     0.645555     0.123084     0.994745
   si1_1   Si     0.613623     0.123314     0.984312
   si1_1   Si     0.648562     0.069303     0.984354
   si1_1   Si     0.616631     0.069533     0.973921
   si1_1   Si     0.599641     0.093379     0.990390
   si1_1   Si     0.567709     0.093610     0.979957
   si1_1   Si     0.602648     0.039598     0.979999
   si1_1   Si     0.570716     0.039829     0.969566
   si1_1   Si     0.615671     0.075852     0.940941
   si1_1   Si     0.583739     0.076082     0.930508
   si1_1   Si     0.618678     0.022071     0.930549
   si1_1   Si     0.569757     0.046147     0.936585
   si1_1   Si     0.609656     0.183414     0.961724
   si1_1   Si     0.577724     0.183644     0.951291
   si1_1   Si     0.612664     0.129633     0.951332
   si1_1   Si     0.580732     0.129863     0.940899
   si1_1   Si     0.563742     0.153710     0.957368
   si1_1   Si     0.566749     0.099928     0.946977
   si1_1   Si     0.534818     0.100159     0.936544
   si1_1   Si     0.579772     0.136182     0.907919
   si1_1   Si     0.547840     0.136412     0.897486
   si1_1   Si     0.582780     0.082401     0.897527
   si1_1   Si     0.533858     0.106477     0.903564
   si1_1   Si     0.573757     0.243744     0.928702
   si1_1   Si     0.576765     0.189963     0.918311
   si1_1   Si     0.544833     0.190193     0.907877
   si1_1   Si     0.530851     0.160259     0.913955
   si1_1   Si     0.498919     0.160489     0.903522
   si1_1   Si     0.543873     0.196512     0.874897
   si1_1   Si     0.546881     0.142731     0.864506
   si1_1   Si     0.553727     0.063675     0.986035
   si1_1   Si     0.530886     0.199951     0.836417
   si1_1   Si     0.529871     0.247929     0.809836
   si1_1   Si     0.552151     0.155416     0.755222
   si1_1   Si     0.548886     0.186497     0.811447
   si1_1   Si     0.541011     0.201672     0.782529
   si1_1   Si     0.501415     0.164696     0.773908
   si1_1   Si     0.508276     0.197498     0.776245
   si1_1   Si     0.500401     0.212673     0.747327
   si1_1   Si     0.519415     0.151242     0.748938
   si1_1   Si     0.511540     0.166417     0.720020
   si1_1   Si     0.460804     0.175697     0.738706
   si1_1   Si     0.478805     0.162243     0.713736
   si1_1   Si     0.470930     0.177418     0.684818
   si1_1   Si     0.467665     0.208499     0.741043
   si1_1   Si     0.459790     0.223674     0.712125
   si1_1   Si     0.438194     0.173244     0.678533
   si1_1   Si     0.430319     0.188419     0.649616
   si1_1   Si     0.598939     0.320161     0.880966
   si1_1   Si     0.616939     0.306707     0.855995
   si1_1   Si     0.609064     0.321882     0.827077
   si1_1   Si     0.597924     0.368138     0.854385
   si1_1   Si     0.631344     0.229369     0.772463
   si1_1   Si     0.620204     0.275625     0.799770
   si1_1   Si     0.588482     0.223474     0.820068
   si1_1   Si     0.580608     0.238649     0.791150
   si1_1   Si     0.577343     0.269730     0.847375
   si1_1   Si     0.569468     0.284905     0.818457
   si1_1   Si     0.587468     0.271451     0.793486
   si1_1   Si     0.579593     0.286626     0.764568
   si1_1   Si     0.576328     0.317708     0.820793
   si1_1   Si     0.568453     0.332883     0.791875
   si1_1   Si     0.536732     0.280731     0.812173
   si1_1   Si     0.528857     0.295906     0.783255
   si1_1   Si     0.535717     0.328709     0.785591
   si1_1   Si     0.527842     0.343884     0.756673
   si1_1   Si     0.642483     0.183112     0.745156
   si1_1   Si     0.602887     0.146136     0.736536
   si1_1   Si     0.591747     0.192392     0.763843
   si1_1   Si     0.609748     0.178938     0.738872
   si1_1   Si     0.601873     0.194113     0.709954
   si1_1   Si     0.598608     0.225195     0.766179
   si1_1   Si     0.590733     0.240370     0.737261
   si1_1   Si     0.559012     0.188218     0.757558
   si1_1   Si     0.551137     0.203393     0.728640
   si1_1   Si     0.547872     0.234475     0.784865
   si1_1   Si     0.539997     0.249650     0.755948
   si1_1   Si     0.557997     0.236196     0.730977
   si1_1   Si     0.550122     0.251371     0.702059
   si1_1   Si     0.546857     0.282452     0.758284
   si1_1   Si     0.538982     0.297627     0.729366
   si1_1   Si     0.507261     0.245476     0.749663
   si1_1   Si     0.499386     0.260651     0.720745
   si1_1   Si     0.506247     0.293453     0.723082
   si1_1   Si     0.498372     0.308628     0.694164
   si1_1   Si     0.620887     0.132682     0.711565
   si1_1   Si     0.613012     0.147857     0.682647
   si1_1   Si     0.570151     0.141962     0.730251
   si1_1   Si     0.562276     0.157137     0.701333
   si1_1   Si     0.580277     0.143683     0.676363
   si1_1   Si     0.572402     0.158858     0.647445
   si1_1   Si     0.569137     0.189939     0.703670
   si1_1   Si     0.561262     0.205114     0.674752
   si1_1   Si     0.529541     0.152963     0.695049
   si1_1   Si     0.521666     0.168138     0.666131
   si1_1   Si     0.518401     0.199219     0.722356
   si1_1   Si     0.510526     0.214394     0.693438
   si1_1   Si     0.528526     0.200940     0.668468
   si1_1   Si     0.520651     0.216115     0.639550
   si1_1   Si     0.517386     0.247197     0.695775
   si1_1   Si     0.509511     0.262372     0.666857
   si1_1   Si     0.477790     0.210220     0.687154
   si1_1   Si     0.469915     0.225395     0.658236
   si1_1   Si     0.466650     0.256477     0.714461
   si1_1   Si     0.458775     0.271652     0.685543
   si1_1   Si     0.476776     0.258198     0.660573
   si1_1   Si     0.468901     0.273373     0.631655
   si1_1   Si     0.465636     0.304454     0.687880
   si1_1   Si     0.457761     0.319629     0.658962
   si1_1   Si     0.583542     0.112601     0.620138
   si1_1   Si     0.550806     0.108427     0.613854
   si1_1   Si     0.542931     0.123602     0.584936
   si1_1   Si     0.539666     0.154684     0.641161
   si1_1   Si     0.531791     0.169859     0.612243
   si1_1   Si     0.492195     0.132882     0.603622
   si1_1   Si     0.488930     0.163964     0.659847
   si1_1   Si     0.481055     0.179139     0.630929
   si1_1   Si     0.499055     0.165685     0.605959
   si1_1   Si     0.491180     0.180860     0.577041
   si1_1   Si     0.487916     0.211941     0.633266
   si1_1   Si     0.480041     0.227116     0.604348
   si1_1   Si     0.448319     0.174965     0.624645
   si1_1   Si     0.437179     0.221221     0.651952
   si1_1   Si     0.429304     0.236396     0.623034
   si1_1   Si     0.447305     0.222942     0.598064
   si1_1   Si     0.439430     0.238117     0.569146
   si1_1   Si     0.436165     0.269199     0.625371
   si1_1   Si     0.428290     0.284374     0.596453
   si1_1   Si     0.510195     0.119428     0.578652
   si1_1   Si     0.706587     0.477347     0.934135
   si1_1   Si     0.666991     0.440370     0.925514
   si1_1   Si     0.678131     0.394114     0.898207
   si1_1   Si     0.696131     0.380660     0.873237
   si1_1   Si     0.688256     0.395835     0.844319
   si1_1   Si     0.684991     0.426917     0.900544
   si1_1   Si     0.677116     0.442091     0.871626
   si1_1   Si     0.645395     0.389940     0.891923
   si1_1   Si     0.637520     0.405115     0.863005
   si1_1   Si     0.644381     0.437918     0.865342
   si1_1   Si     0.636506     0.453092     0.836424
   si1_1   Si     0.710536     0.303322     0.789705
   si1_1   Si     0.699396     0.349578     0.817012
   si1_1   Si     0.659800     0.312602     0.808391
   si1_1   Si     0.656535     0.343683     0.864616
   si1_1   Si     0.648660     0.358858     0.835698
   si1_1   Si     0.666660     0.345404     0.810728
   si1_1   Si     0.658785     0.360579     0.781810
   si1_1   Si     0.655520     0.391661     0.838035
   si1_1   Si     0.647645     0.406836     0.809117
   si1_1   Si     0.615924     0.354684     0.829414
   si1_1   Si     0.608049     0.369859     0.800496
   si1_1   Si     0.604784     0.400941     0.856721
   si1_1   Si     0.596909     0.416116     0.827803
   si1_1   Si     0.614910     0.402662     0.802833
   si1_1   Si     0.607035     0.417837     0.773915
   si1_1   Si     0.603770     0.448919     0.830140
   si1_1   Si     0.595895     0.464093     0.801222
   si1_1   Si     0.721676     0.257065     0.762398
   si1_1   Si     0.682080     0.220089     0.753777
   si1_1   Si     0.670940     0.266345     0.781084
   si1_1   Si     0.688940     0.252891     0.756114
   si1_1   Si     0.681065     0.268066     0.727196
   si1_1   Si     0.677800     0.299148     0.783421
   si1_1   Si     0.669925     0.314323     0.754503
   si1_1   Si     0.638204     0.262171     0.774800
   si1_1   Si     0.630329     0.277346     0.745882
   si1_1   Si     0.627064     0.308428     0.802107
   si1_1   Si     0.619189     0.323603     0.773189
   si1_1   Si     0.637189     0.310149     0.748219
   si1_1   Si     0.629314     0.325324     0.719301
   si1_1   Si     0.626050     0.356405     0.775526
   si1_1   Si     0.618175     0.371580     0.746608
   si1_1   Si     0.586453     0.319429     0.766905
   si1_1   Si     0.578578     0.334604     0.737987
   si1_1   Si     0.575314     0.365685     0.794212
   si1_1   Si     0.567439     0.380860     0.765294
   si1_1   Si     0.585439     0.367406     0.740324
   si1_1   Si     0.577564     0.382581     0.711406
   si1_1   Si     0.574299     0.413663     0.767631
   si1_1   Si     0.566424     0.428838     0.738713
   si1_1   Si     0.534703     0.376687     0.759010
   si1_1   Si     0.526828     0.391861     0.730092
   si1_1   Si     0.525813     0.439839     0.703511
   si1_1   Si     0.711220     0.160378     0.701500
   si1_1   Si     0.703345     0.175553     0.672582
   si1_1   Si     0.700080     0.206635     0.728807
   si1_1   Si     0.692205     0.221810     0.699889
   si1_1   Si     0.660484     0.169658     0.720186
   si1_1   Si     0.652609     0.184833     0.691268
   si1_1   Si     0.649344     0.215915     0.747493
   si1_1   Si     0.641469     0.231090     0.718575
   si1_1   Si     0.659469     0.217636     0.693605
   si1_1   Si     0.651594     0.232811     0.664687
   si1_1   Si     0.648329     0.263892     0.720912
   si1_1   Si     0.640454     0.279067     0.691994
   si1_1   Si     0.608733     0.226916     0.712291
   si1_1   Si     0.600858     0.242091     0.683373
   si1_1   Si     0.597593     0.273172     0.739598
   si1_1   Si     0.589718     0.288347     0.710680
   si1_1   Si     0.607719     0.274893     0.685710
   si1_1   Si     0.599844     0.290068     0.656792
   si1_1   Si     0.596579     0.321150     0.713017
   si1_1   Si     0.588704     0.336325     0.684099
   si1_1   Si     0.556983     0.284173     0.704396
   si1_1   Si     0.549108     0.299348     0.675478
   si1_1   Si     0.545843     0.330430     0.731703
   si1_1   Si     0.537968     0.345605     0.702785
   si1_1   Si     0.555968     0.332151     0.677814
   si1_1   Si     0.548093     0.347326     0.648897
   si1_1   Si     0.544828     0.378408     0.705122
   si1_1   Si     0.536953     0.393582     0.676204
   si1_1   Si     0.505232     0.341431     0.696501
   si1_1   Si     0.497357     0.356606     0.667583
   si1_1   Si     0.504217     0.389409     0.669919
   si1_1   Si     0.496343     0.404583     0.641002
   si1_1   Si     0.725624     0.083040     0.617968
   si1_1   Si     0.714485     0.129297     0.645275
   si1_1   Si     0.674888     0.092320     0.636654
   si1_1   Si     0.671623     0.123402     0.692879
   si1_1   Si     0.663749     0.138577     0.663961
   si1_1   Si     0.681749     0.125123     0.638990
   si1_1   Si     0.673874     0.140298     0.610073
   si1_1   Si     0.670609     0.171379     0.666298
   si1_1   Si     0.662734     0.186554     0.637380
   si1_1   Si     0.631013     0.134403     0.657677
   si1_1   Si     0.623138     0.149578     0.628759
   si1_1   Si     0.619873     0.180659     0.684984
   si1_1   Si     0.611998     0.195834     0.656066
   si1_1   Si     0.629998     0.182380     0.631095
   si1_1   Si     0.622123     0.197555     0.602177
   si1_1   Si     0.618858     0.228637     0.658402
   si1_1   Si     0.610983     0.243812     0.629485
   si1_1   Si     0.579262     0.191660     0.649782
   si1_1   Si     0.571387     0.206835     0.620864
   si1_1   Si     0.568122     0.237917     0.677089
   si1_1   Si     0.560247     0.253092     0.648171
   si1_1   Si     0.578248     0.239638     0.623200
   si1_1   Si     0.570373     0.254813     0.594282
   si1_1   Si     0.567108     0.285894     0.650507
   si1_1   Si     0.559233     0.301069     0.621590
   si1_1   Si     0.527512     0.248918     0.641887
   si1_1   Si     0.519637     0.264093     0.612969
   si1_1   Si     0.516372     0.295174     0.669194
   si1_1   Si     0.508497     0.310349     0.640276
   si1_1   Si     0.526497     0.296895     0.615305
   si1_1   Si     0.518622     0.312070     0.586387
   si1_1   Si     0.515357     0.343152     0.642612
   si1_1   Si     0.507482     0.358327     0.613694
   si1_1   Si     0.475761     0.306175     0.633992
   si1_1   Si     0.467886     0.321350     0.605074
   si1_1   Si     0.464621     0.352432     0.661299
   si1_1   Si     0.456746     0.367607     0.632381
   si1_1   Si     0.474747     0.354153     0.607410
   si1_1   Si     0.466872     0.369328     0.578492
   si1_1   Si     0.463607     0.400410     0.634717
   si1_1   Si     0.455732     0.415584     0.605799
   si1_1   Si     0.692889     0.078866     0.611683
   si1_1   Si     0.685014     0.094041     0.582765
   si1_1   Si     0.634278     0.103321     0.601452
   si1_1   Si     0.652278     0.089867     0.576481
   si1_1   Si     0.644403     0.105042     0.547563
   si1_1   Si     0.641138     0.136124     0.603788
   si1_1   Si     0.633263     0.151299     0.574870
   si1_1   Si     0.601542     0.099147     0.595168
   si1_1   Si     0.593667     0.114322     0.566250
   si1_1   Si     0.590402     0.145404     0.622475
   si1_1   Si     0.582527     0.160579     0.593557
   si1_1   Si     0.600527     0.147125     0.568586
   si1_1   Si     0.592652     0.162300     0.539668
   si1_1   Si     0.589388     0.193381     0.595893
   si1_1   Si     0.581513     0.208556     0.566975
   si1_1   Si     0.549791     0.156405     0.587273
   si1_1   Si     0.541916     0.171580     0.558355
   si1_1   Si     0.538652     0.202661     0.614580
   si1_1   Si     0.530777     0.217836     0.585662
   si1_1   Si     0.548777     0.204382     0.560691
   si1_1   Si     0.540902     0.219557     0.531773
   si1_1   Si     0.537637     0.250639     0.587998
   si1_1   Si     0.529762     0.265814     0.559080
   si1_1   Si     0.498041     0.213662     0.579378
   si1_1   Si     0.490166     0.228837     0.550460
   si1_1   Si     0.486901     0.259919     0.606685
   si1_1   Si     0.479026     0.275094     0.577767
   si1_1   Si     0.497026     0.261640     0.552796
   si1_1   Si     0.489151     0.276815     0.523878
   si1_1   Si     0.485886     0.307896     0.580103
   si1_1   Si     0.478011     0.323071     0.551185
   si1_1   Si     0.446290     0.270920     0.571482
   si1_1   Si     0.438415     0.286095     0.542565
   si1_1   Si     0.435150     0.317176     0.598790
   si1_1   Si     0.427275     0.332351     0.569872
   si1_1   Si     0.445276     0.318897     0.544901
   si1_1   Si     0.437401     0.334072     0.515983
   si1_1   Si     0.434136     0.365154     0.572208
   si1_1   Si     0.426261     0.380329     0.543290
   si1_1   Si     0.611667     0.100868     0.541279
   si1_1   Si     0.560931     0.110148     0.559966
   si1_1   Si     0.553056     0.125323     0.531048
   si1_1   Si     0.559917     0.158126     0.533384
   si1_1   Si     0.509181     0.167406     0.552070
   si1_1   Si     0.501306     0.182581     0.523153
   si1_1   Si     0.508166     0.215383     0.525489
   si1_1   Si     0.500291     0.230558     0.496571
   si1_1   Si     0.456416     0.272641     0.517594
   si1_1   Si     0.767449     0.469788     0.861561
   si1_1   Si     0.764184     0.500870     0.917786
   si1_1   Si     0.756309     0.516045     0.888868
   si1_1   Si     0.724588     0.463893     0.909165
   si1_1   Si     0.716713     0.479068     0.880247
   si1_1   Si     0.713448     0.510150     0.936472
   si1_1   Si     0.705573     0.525325     0.907554
   si1_1   Si     0.723573     0.511871     0.882583
   si1_1   Si     0.715698     0.527045     0.853666
   si1_1   Si     0.789728     0.377275     0.806946
   si1_1   Si     0.778588     0.423531     0.834254
   si1_1   Si     0.738992     0.386555     0.825633
   si1_1   Si     0.735727     0.417637     0.881858
   si1_1   Si     0.727852     0.432811     0.852940
   si1_1   Si     0.745853     0.419358     0.827969
   si1_1   Si     0.737978     0.434532     0.799051
   si1_1   Si     0.734713     0.465614     0.855276
   si1_1   Si     0.726838     0.480789     0.826358
   si1_1   Si     0.695117     0.428638     0.846656
   si1_1   Si     0.687242     0.443812     0.817738
   si1_1   Si     0.683977     0.474894     0.873963
   si1_1   Si     0.676102     0.490069     0.845045
   si1_1   Si     0.694102     0.476615     0.820074
   si1_1   Si     0.686227     0.491790     0.791156
   si1_1   Si     0.682962     0.522872     0.847381
   si1_1   Si     0.675087     0.538047     0.818463
   si1_1   Si     0.643366     0.485895     0.838761
   si1_1   Si     0.635491     0.501070     0.809843
   si1_1   Si     0.642352     0.533873     0.812179
   si1_1   Si     0.800868     0.331018     0.779639
   si1_1   Si     0.761272     0.294042     0.771019
   si1_1   Si     0.750132     0.340298     0.798326
   si1_1   Si     0.768132     0.326844     0.773355
   si1_1   Si     0.760257     0.342019     0.744437
   si1_1   Si     0.756993     0.373101     0.800662
   si1_1   Si     0.749118     0.388276     0.771744
   si1_1   Si     0.717396     0.336124     0.792042
   si1_1   Si     0.709521     0.351299     0.763124
   si1_1   Si     0.706256     0.382381     0.819349
   si1_1   Si     0.698382     0.397556     0.790431
   si1_1   Si     0.716382     0.384102     0.765460
   si1_1   Si     0.708507     0.399277     0.736542
   si1_1   Si     0.705242     0.430359     0.792767
   si1_1   Si     0.697367     0.445533     0.763849
   si1_1   Si     0.665646     0.393382     0.784147
   si1_1   Si     0.657771     0.408557     0.755229
   si1_1   Si     0.654506     0.439639     0.811454
   si1_1   Si     0.646631     0.454813     0.782536
   si1_1   Si     0.664631     0.441360     0.757565
   si1_1   Si     0.656756     0.456534     0.728647
   si1_1   Si     0.653491     0.487616     0.784872
   si1_1   Si     0.645616     0.502791     0.755954
   si1_1   Si     0.613895     0.450640     0.776251
   si1_1   Si     0.606020     0.465814     0.747334
   si1_1   Si     0.602755     0.496896     0.803559
   si1_1   Si     0.594880     0.512071     0.774641
   si1_1   Si     0.612881     0.498617     0.749670
   si1_1   Si     0.605006     0.513792     0.720752
   si1_1   Si     0.782537     0.249506     0.689823
   si1_1   Si     0.779272     0.280588     0.746048
   si1_1   Si     0.771397     0.295763     0.717130
   si1_1   Si     0.739676     0.243611     0.737427
   si1_1   Si     0.731801     0.258786     0.708510
   si1_1   Si     0.728536     0.289868     0.764734
   si1_1   Si     0.720661     0.305043     0.735817
   si1_1   Si     0.738661     0.291589     0.710846
   si1_1   Si     0.730787     0.306764     0.681928
   si1_1   Si     0.727522     0.337845     0.738153
   si1_1   Si     0.719647     0.353020     0.709235
   si1_1   Si     0.687925     0.300869     0.729532
   si1_1   Si     0.680050     0.316044     0.700614
   si1_1   Si     0.676786     0.347125     0.756839
   si1_1   Si     0.668911     0.362300     0.727922
   si1_1   Si     0.686911     0.348846     0.702951
   si1_1   Si     0.679036     0.364021     0.674033
   si1_1   Si     0.675771     0.395103     0.730258
   si1_1   Si     0.667896     0.410278     0.701340
   si1_1   Si     0.636175     0.358126     0.721637
   si1_1   Si     0.628300     0.373301     0.692719
   si1_1   Si     0.625035     0.404383     0.748944
   si1_1   Si     0.617160     0.419558     0.720026
   si1_1   Si     0.635160     0.406104     0.695056
   si1_1   Si     0.627285     0.421279     0.666138
   si1_1   Si     0.624021     0.452361     0.722363
   si1_1   Si     0.616146     0.467535     0.693445
   si1_1   Si     0.584424     0.415384     0.713742
   si1_1   Si     0.576549     0.430559     0.684824
   si1_1   Si     0.573285     0.461641     0.741049
   si1_1   Si     0.565410     0.476815     0.712131
   si1_1   Si     0.583410     0.463362     0.687161
   si1_1   Si     0.575535     0.478536     0.658243
   si1_1   Si     0.572270     0.509618     0.714468
   si1_1   Si     0.564395     0.524793     0.685550
   si1_1   Si     0.532674     0.472642     0.705847
   si1_1   Si     0.524799     0.487816     0.676929
   si1_1   Si     0.531659     0.520619     0.679266
   si1_1   Si     0.523784     0.535794     0.650348
   si1_1   Si     0.793677     0.203250     0.662516
   si1_1   Si     0.754081     0.166273     0.653895
   si1_1   Si     0.742941     0.212530     0.681202
   si1_1   Si     0.760941     0.199076     0.656232
   si1_1   Si     0.753066     0.214251     0.627314
   si1_1   Si     0.749801     0.245332     0.683539
   si1_1   Si     0.741926     0.260507     0.654621
   si1_1   Si     0.710205     0.208356     0.674918
   si1_1   Si     0.702330     0.223531     0.646000
   si1_1   Si     0.699065     0.254612     0.702225
   si1_1   Si     0.691190     0.269787     0.673307
   si1_1   Si     0.709191     0.256333     0.648337
   si1_1   Si     0.701316     0.271508     0.619419
   si1_1   Si     0.698051     0.302590     0.675644
   si1_1   Si     0.690176     0.317765     0.646726
   si1_1   Si     0.658455     0.265613     0.667023
   si1_1   Si     0.650580     0.280788     0.638105
   si1_1   Si     0.647315     0.311870     0.694330
   si1_1   Si     0.639440     0.327045     0.665412
   si1_1   Si     0.657440     0.313591     0.640442
   si1_1   Si     0.649565     0.328766     0.611524
   si1_1   Si     0.646300     0.359847     0.667749
   si1_1   Si     0.638425     0.375022     0.638831
   si1_1   Si     0.606704     0.322871     0.659128
   si1_1   Si     0.598829     0.338046     0.630210
   si1_1   Si     0.595564     0.369127     0.686435
   si1_1   Si     0.587689     0.384302     0.657517
   si1_1   Si     0.605690     0.370848     0.632547
   si1_1   Si     0.597815     0.386023     0.603629
   si1_1   Si     0.594550     0.417105     0.659854
   si1_1   Si     0.586675     0.432280     0.630936
   si1_1   Si     0.554953     0.380128     0.651233
   si1_1   Si     0.547079     0.395303     0.622315
   si1_1   Si     0.543814     0.426385     0.678540
   si1_1   Si     0.535939     0.441560     0.649622
   si1_1   Si     0.553939     0.428106     0.624652
   si1_1   Si     0.546064     0.443281     0.595734
   si1_1   Si     0.542799     0.474363     0.651959
   si1_1   Si     0.534924     0.489537     0.623041
   si1_1   Si     0.503203     0.437386     0.643338
   si1_1   Si     0.495328     0.452561     0.614420
   si1_1   Si     0.502188     0.485364     0.616757
   si1_1   Si     0.494313     0.500538     0.587839
   si1_1   Si     0.765221     0.120017     0.626588
   si1_1   Si     0.775346     0.121738     0.572700
   si1_1   Si     0.772081     0.152819     0.628925
   si1_1   Si     0.764206     0.167994     0.600007
   si1_1   Si     0.732485     0.115843     0.620304
   si1_1   Si     0.724610     0.131018     0.591386
   si1_1   Si     0.721345     0.162099     0.647611
   si1_1   Si     0.713470     0.177274     0.618693
   si1_1   Si     0.731470     0.163820     0.593723
   si1_1   Si     0.723595     0.178995     0.564805
   si1_1   Si     0.720330     0.210077     0.621030
   si1_1   Si     0.712455     0.225252     0.592112
   si1_1   Si     0.680734     0.173100     0.612409
   si1_1   Si     0.672859     0.188275     0.583491
   si1_1   Si     0.669594     0.219357     0.639716
   si1_1   Si     0.661719     0.234532     0.610798
   si1_1   Si     0.679720     0.221078     0.585828
   si1_1   Si     0.671845     0.236253     0.556910
   si1_1   Si     0.668580     0.267334     0.613135
   si1_1   Si     0.660705     0.282509     0.584217
   si1_1   Si     0.628984     0.230358     0.604514
   si1_1   Si     0.621109     0.245533     0.575596
   si1_1   Si     0.617844     0.276614     0.631821
   si1_1   Si     0.609969     0.291789     0.602903
   si1_1   Si     0.627969     0.278335     0.577933
   si1_1   Si     0.620094     0.293510     0.549015
   si1_1   Si     0.616829     0.324592     0.605240
   si1_1   Si     0.608954     0.339767     0.576322
   si1_1   Si     0.577233     0.287615     0.596619
   si1_1   Si     0.569358     0.302790     0.567701
   si1_1   Si     0.566093     0.333872     0.623926
   si1_1   Si     0.558218     0.349047     0.595008
   si1_1   Si     0.576219     0.335593     0.570038
   si1_1   Si     0.568344     0.350768     0.541120
   si1_1   Si     0.565079     0.381849     0.597345
   si1_1   Si     0.557204     0.397024     0.568427
   si1_1   Si     0.525483     0.344873     0.588724
   si1_1   Si     0.517608     0.360048     0.559806
   si1_1   Si     0.514343     0.391130     0.616031
   si1_1   Si     0.506468     0.406304     0.587113
   si1_1   Si     0.524468     0.392850     0.562143
   si1_1   Si     0.516593     0.408025     0.533225
   si1_1   Si     0.513328     0.439107     0.589450
   si1_1   Si     0.505453     0.454282     0.560532
   si1_1   Si     0.473732     0.402131     0.580829
   si1_1   Si     0.465857     0.417305     0.551911
   si1_1   Si     0.462592     0.448387     0.608136
   si1_1   Si     0.454717     0.463562     0.579218
   si1_1   Si     0.472718     0.450108     0.554248
   si1_1   Si     0.464843     0.465283     0.525330
   si1_1   Si     0.461578     0.496365     0.581555
   si1_1   Si     0.453703     0.511539     0.552637
   si1_1   Si     0.735750     0.084761     0.564079
   si1_1   Si     0.745875     0.086482     0.510191
   si1_1   Si     0.742610     0.117564     0.566416
   si1_1   Si     0.734735     0.132739     0.537498
   si1_1   Si     0.703014     0.080587     0.557795
   si1_1   Si     0.695139     0.095762     0.528877
   si1_1   Si     0.691874     0.126844     0.585102
   si1_1   Si     0.683999     0.142019     0.556184
   si1_1   Si     0.701999     0.128565     0.531214
   si1_1   Si     0.694124     0.143740     0.502296
   si1_1   Si     0.690860     0.174821     0.558521
   si1_1   Si     0.682985     0.189996     0.529603
   si1_1   Si     0.651263     0.137845     0.549900
   si1_1   Si     0.643388     0.153020     0.520982
   si1_1   Si     0.640124     0.184101     0.577207
   si1_1   Si     0.632249     0.199276     0.548289
   si1_1   Si     0.650249     0.185822     0.523319
   si1_1   Si     0.642374     0.200997     0.494401
   si1_1   Si     0.639109     0.232079     0.550626
   si1_1   Si     0.631234     0.247254     0.521708
   si1_1   Si     0.599513     0.195102     0.542005
   si1_1   Si     0.591638     0.210277     0.513087
   si1_1   Si     0.588373     0.241359     0.569312
   si1_1   Si     0.580498     0.256534     0.540394
   si1_1   Si     0.598498     0.243080     0.515424
   si1_1   Si     0.590623     0.258255     0.486506
   si1_1   Si     0.587358     0.289336     0.542731
   si1_1   Si     0.579484     0.304511     0.513813
   si1_1   Si     0.547762     0.252360     0.534110
   si1_1   Si     0.539887     0.267535     0.505192
   si1_1   Si     0.536622     0.298616     0.561417
   si1_1   Si     0.528747     0.313791     0.532499
   si1_1   Si     0.546748     0.300337     0.507529
   si1_1   Si     0.538873     0.315512     0.478611
   si1_1   Si     0.535608     0.346594     0.534836
   si1_1   Si     0.527733     0.361769     0.505918
   si1_1   Si     0.496012     0.309617     0.526215
   si1_1   Si     0.488137     0.324792     0.497297
   si1_1   Si     0.484872     0.355874     0.553522
   si1_1   Si     0.476997     0.371049     0.524604
   si1_1   Si     0.494997     0.357595     0.499634
   si1_1   Si     0.487122     0.372770     0.470716
   si1_1   Si     0.483857     0.403851     0.526941
   si1_1   Si     0.475982     0.419026     0.498023
   si1_1   Si     0.444261     0.366875     0.518320
   si1_1   Si     0.436386     0.382050     0.489402
   si1_1   Si     0.433121     0.413132     0.545627
   si1_1   Si     0.425246     0.428306     0.516709
   si1_1   Si     0.443247     0.414853     0.491739
   si1_1   Si     0.435372     0.430027     0.462821
   si1_1   Si     0.432107     0.461109     0.519046
   si1_1   Si     0.392511     0.424133     0.510425
   si1_1   Si     0.713139     0.082308     0.503907
   si1_1   Si     0.662403     0.091588     0.522593
   si1_1   Si     0.661389     0.139566     0.496012
   si1_1   Si     0.610653     0.148846     0.514698
   si1_1   Si     0.609638     0.196823     0.488117
   si1_1   Si     0.558902     0.206103     0.506803
   si1_1   Si     0.557888     0.254081     0.480222
   si1_1   Si     0.507152     0.263361     0.498908
   si1_1   Si     0.506137     0.311338     0.472327
   si1_1   Si     0.455401     0.320618     0.491013
   si1_1   Si     0.454387     0.368596     0.464432
   si1_1   Si     0.818185     0.460508     0.842874
   si1_1   Si     0.774309     0.502591     0.863897
   si1_1   Si     0.766434     0.517765     0.834979
   si1_1   Si     0.765420     0.565743     0.808398
   si1_1   Si     0.829324     0.414251     0.815567
   si1_1   Si     0.847325     0.400797     0.790597
   si1_1   Si     0.839450     0.415972     0.761679
   si1_1   Si     0.836185     0.447054     0.817904
   si1_1   Si     0.828310     0.462229     0.788986
   si1_1   Si     0.796589     0.410078     0.809283
   si1_1   Si     0.788714     0.425252     0.780365
   si1_1   Si     0.785449     0.456334     0.836590
   si1_1   Si     0.777574     0.471509     0.807672
   si1_1   Si     0.795574     0.458055     0.782702
   si1_1   Si     0.787699     0.473230     0.753784
   si1_1   Si     0.784434     0.504312     0.810009
   si1_1   Si     0.776559     0.519486     0.781091
   si1_1   Si     0.744838     0.467335     0.801388
   si1_1   Si     0.736963     0.482510     0.772470
   si1_1   Si     0.733698     0.513592     0.828695
   si1_1   Si     0.725823     0.528766     0.799777
   si1_1   Si     0.743824     0.515313     0.774807
   si1_1   Si     0.735949     0.530487     0.745889
   si1_1   Si     0.732684     0.561569     0.802114
   si1_1   Si     0.693088     0.524593     0.793493
   si1_1   Si     0.685213     0.539767     0.764575
   si1_1   Si     0.861729     0.323459     0.707065
   si1_1   Si     0.858465     0.354541     0.763290
   si1_1   Si     0.850590     0.369716     0.734372
   si1_1   Si     0.818868     0.317564     0.754669
   si1_1   Si     0.810993     0.332739     0.725751
   si1_1   Si     0.807729     0.363821     0.781976
   si1_1   Si     0.799854     0.378996     0.753058
   si1_1   Si     0.817854     0.365542     0.728088
   si1_1   Si     0.809979     0.380717     0.699170
   si1_1   Si     0.806714     0.411799     0.755395
   si1_1   Si     0.798839     0.426973     0.726477
   si1_1   Si     0.767118     0.374822     0.746774
   si1_1   Si     0.759243     0.389997     0.717856
   si1_1   Si     0.755978     0.421079     0.774081
   si1_1   Si     0.748103     0.436253     0.745163
   si1_1   Si     0.766103     0.422800     0.720193
   si1_1   Si     0.758228     0.437974     0.691275
   si1_1   Si     0.754963     0.469056     0.747500
   si1_1   Si     0.747088     0.484231     0.718582
   si1_1   Si     0.715367     0.432080     0.738879
   si1_1   Si     0.707492     0.447254     0.709961
   si1_1   Si     0.704227     0.478336     0.766186
   si1_1   Si     0.696352     0.493511     0.737268
   si1_1   Si     0.714353     0.480057     0.712298
   si1_1   Si     0.706478     0.495232     0.683380
   si1_1   Si     0.703213     0.526314     0.739605
   si1_1   Si     0.695338     0.541488     0.710687
   si1_1   Si     0.663617     0.489337     0.730984
   si1_1   Si     0.655742     0.504512     0.702066
   si1_1   Si     0.652477     0.535594     0.758291
   si1_1   Si     0.644602     0.550769     0.729373
   si1_1   Si     0.662602     0.537315     0.704403
   si1_1   Si     0.654727     0.552489     0.675485
   si1_1   Si     0.611866     0.546595     0.723089
   si1_1   Si     0.603991     0.561770     0.694171
   si1_1   Si     0.872869     0.277203     0.679758
   si1_1   Si     0.833273     0.240226     0.671137
   si1_1   Si     0.822133     0.286483     0.698444
   si1_1   Si     0.840134     0.273029     0.673474
   si1_1   Si     0.832259     0.288204     0.644556
   si1_1   Si     0.828994     0.319285     0.700781
   si1_1   Si     0.821119     0.334460     0.671863
   si1_1   Si     0.789397     0.282309     0.692160
   si1_1   Si     0.781523     0.297484     0.663242
   si1_1   Si     0.778258     0.328565     0.719467
   si1_1   Si     0.770383     0.343740     0.690549
   si1_1   Si     0.788383     0.330286     0.665579
   si1_1   Si     0.780508     0.345461     0.636661
   si1_1   Si     0.777243     0.376543     0.692886
   si1_1   Si     0.769368     0.391718     0.663968
   si1_1   Si     0.737647     0.339566     0.684265
   si1_1   Si     0.729772     0.354741     0.655347
   si1_1   Si     0.726507     0.385823     0.711572
   si1_1   Si     0.718632     0.400998     0.682654
   si1_1   Si     0.736632     0.387544     0.657684
   si1_1   Si     0.728757     0.402719     0.628766
   si1_1   Si     0.725493     0.433801     0.684991
   si1_1   Si     0.717618     0.448975     0.656073
   si1_1   Si     0.685896     0.396824     0.676370
   si1_1   Si     0.678021     0.411999     0.647452
   si1_1   Si     0.674757     0.443081     0.703677
   si1_1   Si     0.666882     0.458255     0.674759
   si1_1   Si     0.684882     0.444802     0.649788
   si1_1   Si     0.677007     0.459976     0.620871
   si1_1   Si     0.673742     0.491058     0.677096
   si1_1   Si     0.665867     0.506233     0.648178
   si1_1   Si     0.634146     0.454082     0.668475
   si1_1   Si     0.626271     0.469256     0.639557
   si1_1   Si     0.623006     0.500338     0.695782
   si1_1   Si     0.615131     0.515513     0.666864
   si1_1   Si     0.633131     0.502059     0.641893
   si1_1   Si     0.625256     0.517234     0.612976
   si1_1   Si     0.621991     0.548316     0.669201
   si1_1   Si     0.614117     0.563491     0.640283
   si1_1   Si     0.582395     0.511339     0.660580
   si1_1   Si     0.574520     0.526514     0.631662
   si1_1   Si     0.571255     0.557596     0.687887
   si1_1   Si     0.581381     0.559317     0.633998
   si1_1   Si     0.573506     0.574492     0.605080
   si1_1   Si     0.851273     0.226772     0.646167
   si1_1   Si     0.843398     0.241947     0.617249
   si1_1   Si     0.811677     0.189796     0.637546
   si1_1   Si     0.803802     0.204971     0.608628
   si1_1   Si     0.800537     0.236052     0.664853
   si1_1   Si     0.792662     0.251227     0.635935
   si1_1   Si     0.810663     0.237773     0.610964
   si1_1   Si     0.802788     0.252948     0.582047
   si1_1   Si     0.799523     0.284030     0.638271
   si1_1   Si     0.791648     0.299205     0.609354
   si1_1   Si     0.759927     0.247053     0.629651
   si1_1   Si     0.752052     0.262228     0.600733
   si1_1   Si     0.748787     0.293310     0.656958
   si1_1   Si     0.740912     0.308485     0.628040
   si1_1   Si     0.758912     0.295031     0.603069
   si1_1   Si     0.751037     0.310206     0.574151
   si1_1   Si     0.747772     0.341287     0.630376
   si1_1   Si     0.739897     0.356462     0.601459
   si1_1   Si     0.708176     0.304311     0.621756
   si1_1   Si     0.700301     0.319486     0.592838
   si1_1   Si     0.697036     0.350567     0.649063
   si1_1   Si     0.689161     0.365742     0.620145
   si1_1   Si     0.707162     0.352288     0.595174
   si1_1   Si     0.699287     0.367463     0.566256
   si1_1   Si     0.696022     0.398545     0.622481
   si1_1   Si     0.688147     0.413720     0.593564
   si1_1   Si     0.656426     0.361568     0.613861
   si1_1   Si     0.648551     0.376743     0.584943
   si1_1   Si     0.645286     0.407825     0.641168
   si1_1   Si     0.637411     0.423000     0.612250
   si1_1   Si     0.655411     0.409546     0.587279
   si1_1   Si     0.647536     0.424721     0.558361
   si1_1   Si     0.644271     0.455803     0.614586
   si1_1   Si     0.636396     0.470977     0.585668
   si1_1   Si     0.604675     0.418826     0.605966
   si1_1   Si     0.596800     0.434001     0.577048
   si1_1   Si     0.593535     0.465083     0.633273
   si1_1   Si     0.585660     0.480257     0.604355
   si1_1   Si     0.603660     0.466804     0.579384
   si1_1   Si     0.595785     0.481978     0.550466
   si1_1   Si     0.592521     0.513060     0.606691
   si1_1   Si     0.584646     0.528235     0.577773
   si1_1   Si     0.552924     0.476084     0.598071
   si1_1   Si     0.545049     0.491258     0.569153
   si1_1   Si     0.541785     0.522340     0.625378
   si1_1   Si     0.533910     0.537515     0.596460
   si1_1   Si     0.551910     0.524061     0.571489
   si1_1   Si     0.544035     0.539236     0.542571
   si1_1   Si     0.540770     0.570318     0.598796
   si1_1   Si     0.501174     0.533341     0.590176
   si1_1   Si     0.493299     0.548516     0.561258
   si1_1   Si     0.825067     0.160435     0.527432
   si1_1   Si     0.821802     0.191517     0.583657
   si1_1   Si     0.813928     0.206692     0.554739
   si1_1   Si     0.782206     0.154540     0.575037
   si1_1   Si     0.774331     0.169715     0.546119
   si1_1   Si     0.771066     0.200797     0.602344
   si1_1   Si     0.763191     0.215972     0.573426
   si1_1   Si     0.781192     0.202518     0.548455
   si1_1   Si     0.773317     0.217693     0.519537
   si1_1   Si     0.770052     0.248774     0.575762
   si1_1   Si     0.762177     0.263949     0.546844
   si1_1   Si     0.730456     0.211798     0.567142
   si1_1   Si     0.722581     0.226973     0.538224
   si1_1   Si     0.719316     0.258054     0.594449
   si1_1   Si     0.711441     0.273229     0.565531
   si1_1   Si     0.729441     0.259775     0.540560
   si1_1   Si     0.721566     0.274950     0.511642
   si1_1   Si     0.718301     0.306032     0.567867
   si1_1   Si     0.710426     0.321207     0.538949
   si1_1   Si     0.678705     0.269055     0.559247
   si1_1   Si     0.670830     0.284230     0.530329
   si1_1   Si     0.667565     0.315312     0.586554
   si1_1   Si     0.659690     0.330487     0.557636
   si1_1   Si     0.677691     0.317033     0.532665
   si1_1   Si     0.669816     0.332208     0.503747
   si1_1   Si     0.666551     0.363289     0.559972
   si1_1   Si     0.658676     0.378464     0.531054
   si1_1   Si     0.626955     0.326313     0.551352
   si1_1   Si     0.619080     0.341488     0.522434
   si1_1   Si     0.615815     0.372569     0.578659
   si1_1   Si     0.607940     0.387744     0.549741
   si1_1   Si     0.625940     0.374290     0.524770
   si1_1   Si     0.618065     0.389465     0.495852
   si1_1   Si     0.614800     0.420547     0.552077
   si1_1   Si     0.606925     0.435722     0.523159
   si1_1   Si     0.575204     0.383570     0.543456
   si1_1   Si     0.567329     0.398745     0.514539
   si1_1   Si     0.564064     0.429827     0.570764
   si1_1   Si     0.556189     0.445002     0.541846
   si1_1   Si     0.574190     0.431548     0.516875
   si1_1   Si     0.566315     0.446723     0.487957
   si1_1   Si     0.563050     0.477805     0.544182
   si1_1   Si     0.555175     0.492979     0.515264
   si1_1   Si     0.523454     0.440828     0.535561
   si1_1   Si     0.515579     0.456003     0.506644
   si1_1   Si     0.512314     0.487085     0.562868
   si1_1   Si     0.504439     0.502259     0.533951
   si1_1   Si     0.522439     0.488806     0.508980
   si1_1   Si     0.514564     0.503980     0.480062
   si1_1   Si     0.511299     0.535062     0.536287
   si1_1   Si     0.503424     0.550237     0.507369
   si1_1   Si     0.471703     0.498086     0.527666
   si1_1   Si     0.463828     0.513260     0.498748
   si1_1   Si     0.460563     0.544342     0.554973
   si1_1   Si     0.470688     0.546063     0.501085
   si1_1   Si     0.785471     0.123459     0.518812
   si1_1   Si     0.795596     0.125180     0.464923
   si1_1   Si     0.792332     0.156261     0.521148
   si1_1   Si     0.784457     0.171436     0.492230
   si1_1   Si     0.752735     0.119285     0.512527
   si1_1   Si     0.744860     0.134460     0.483610
   si1_1   Si     0.741596     0.165541     0.539835
   si1_1   Si     0.733721     0.180716     0.510917
   si1_1   Si     0.751721     0.167262     0.485946
   si1_1   Si     0.743846     0.182437     0.457028
   si1_1   Si     0.740581     0.213519     0.513253
   si1_1   Si     0.732706     0.228694     0.484335
   si1_1   Si     0.700985     0.176542     0.504632
   si1_1   Si     0.693110     0.191717     0.475714
   si1_1   Si     0.689845     0.222799     0.531939
   si1_1   Si     0.681970     0.237974     0.503022
   si1_1   Si     0.699970     0.224520     0.478051
   si1_1   Si     0.692095     0.239695     0.449133
   si1_1   Si     0.688831     0.270776     0.505358
   si1_1   Si     0.680956     0.285951     0.476440
   si1_1   Si     0.649234     0.233800     0.496737
   si1_1   Si     0.641359     0.248975     0.467819
   si1_1   Si     0.638095     0.280056     0.524044
   si1_1   Si     0.630220     0.295231     0.495127
   si1_1   Si     0.648220     0.281777     0.470156
   si1_1   Si     0.640345     0.296952     0.441238
   si1_1   Si     0.637080     0.328034     0.497463
   si1_1   Si     0.629205     0.343209     0.468545
   si1_1   Si     0.597484     0.291057     0.488842
   si1_1   Si     0.589609     0.306232     0.459924
   si1_1   Si     0.586344     0.337314     0.516149
   si1_1   Si     0.578469     0.352489     0.487231
   si1_1   Si     0.596469     0.339035     0.462261
   si1_1   Si     0.588594     0.354210     0.433343
   si1_1   Si     0.585329     0.385291     0.489568
   si1_1   Si     0.577454     0.400466     0.460650
   si1_1   Si     0.545733     0.348315     0.480947
   si1_1   Si     0.537858     0.363490     0.452029
   si1_1   Si     0.534593     0.394571     0.508254
   si1_1   Si     0.526718     0.409746     0.479336
   si1_1   Si     0.544719     0.396292     0.454366
   si1_1   Si     0.536844     0.411467     0.425448
   si1_1   Si     0.533579     0.442549     0.481673
   si1_1   Si     0.525704     0.457724     0.452755
   si1_1   Si     0.493983     0.405572     0.473052
   si1_1   Si     0.486108     0.420747     0.444134
   si1_1   Si     0.482843     0.451829     0.500359
   si1_1   Si     0.474968     0.467004     0.471441
   si1_1   Si     0.492968     0.453550     0.446471
   si1_1   Si     0.485093     0.468725     0.417553
   si1_1   Si     0.481828     0.499807     0.473778
   si1_1   Si     0.473953     0.514981     0.444860
   si1_1   Si     0.442232     0.462830     0.465157
   si1_1   Si     0.608624     0.244801     0.461535
   si1_1   Si     0.556873     0.302058     0.453640
   si1_1   Si     0.505123     0.359316     0.445745
   si1_1   Si     0.453372     0.416573     0.437850
   si1_1   Si     0.452357     0.464551     0.411269
   si1_1   Si     0.940922     0.397412     0.724306
   si1_1   Si     0.890186     0.406692     0.742993
   si1_1   Si     0.879046     0.452949     0.770300
   si1_1   Si     0.897046     0.439495     0.745329
   si1_1   Si     0.889171     0.454670     0.716411
   si1_1   Si     0.846310     0.448775     0.764016
   si1_1   Si     0.838435     0.463950     0.735098
   si1_1   Si     0.827295     0.510206     0.762405
   si1_1   Si     0.845296     0.496753     0.737434
   si1_1   Si     0.837421     0.511927     0.708516
   si1_1   Si     0.794560     0.506033     0.756120
   si1_1   Si     0.786685     0.521207     0.727203
   si1_1   Si     0.783420     0.552289     0.783428
   si1_1   Si     0.775545     0.567464     0.754510
   si1_1   Si     0.793545     0.554010     0.729539
   si1_1   Si     0.785670     0.569185     0.700621
   si1_1   Si     0.742809     0.563290     0.748225
   si1_1   Si     0.734934     0.578465     0.719308
   si1_1   Si     0.912465     0.314179     0.688379
   si1_1   Si     0.901326     0.360436     0.715686
   si1_1   Si     0.919326     0.346982     0.690715
   si1_1   Si     0.911451     0.362157     0.661797
   si1_1   Si     0.908186     0.393238     0.718022
   si1_1   Si     0.900311     0.408413     0.689104
   si1_1   Si     0.868590     0.356262     0.709401
   si1_1   Si     0.860715     0.371437     0.680483
   si1_1   Si     0.857450     0.402518     0.736708
   si1_1   Si     0.849575     0.417693     0.707791
   si1_1   Si     0.867575     0.404239     0.682820
   si1_1   Si     0.859700     0.419414     0.653902
   si1_1   Si     0.856436     0.450496     0.710127
   si1_1   Si     0.848561     0.465671     0.681209
   si1_1   Si     0.816839     0.413519     0.701506
   si1_1   Si     0.808964     0.428694     0.672588
   si1_1   Si     0.805699     0.459776     0.728813
   si1_1   Si     0.797825     0.474951     0.699896
   si1_1   Si     0.815825     0.461497     0.674925
   si1_1   Si     0.807950     0.476672     0.646007
   si1_1   Si     0.804685     0.507754     0.702232
   si1_1   Si     0.796810     0.522928     0.673314
   si1_1   Si     0.765089     0.470777     0.693611
   si1_1   Si     0.757214     0.485952     0.664693
   si1_1   Si     0.753949     0.517034     0.720918
   si1_1   Si     0.746074     0.532208     0.692000
   si1_1   Si     0.764074     0.518755     0.667030
   si1_1   Si     0.756199     0.533929     0.638112
   si1_1   Si     0.752934     0.565011     0.694337
   si1_1   Si     0.745059     0.580186     0.665419
   si1_1   Si     0.713338     0.528035     0.685716
   si1_1   Si     0.705463     0.543209     0.656798
   si1_1   Si     0.702198     0.574291     0.713023
   si1_1   Si     0.694323     0.589466     0.684105
   si1_1   Si     0.712324     0.576012     0.659135
   si1_1   Si     0.704449     0.591187     0.630217
   si1_1   Si     0.661588     0.585292     0.677821
   si1_1   Si     0.922591     0.315900     0.634490
   si1_1   Si     0.882995     0.278924     0.625869
   si1_1   Si     0.879730     0.310005     0.682094
   si1_1   Si     0.871855     0.325180     0.653176
   si1_1   Si     0.889855     0.311726     0.628206
   si1_1   Si     0.881980     0.326901     0.599288
   si1_1   Si     0.878715     0.357983     0.655513
   si1_1   Si     0.870840     0.373158     0.626595
   si1_1   Si     0.839119     0.321006     0.646892
   si1_1   Si     0.831244     0.336181     0.617974
   si1_1   Si     0.827979     0.367263     0.674199
   si1_1   Si     0.820104     0.382438     0.645281
   si1_1   Si     0.838104     0.368984     0.620311
   si1_1   Si     0.830229     0.384159     0.591393
   si1_1   Si     0.826965     0.415240     0.647618
   si1_1   Si     0.819090     0.430415     0.618700
   si1_1   Si     0.787368     0.378264     0.638997
   si1_1   Si     0.779493     0.393439     0.610079
   si1_1   Si     0.776229     0.424521     0.666304
   si1_1   Si     0.768354     0.439695     0.637386
   si1_1   Si     0.786354     0.426241     0.612416
   si1_1   Si     0.778479     0.441416     0.583498
   si1_1   Si     0.775214     0.472498     0.639723
   si1_1   Si     0.767339     0.487673     0.610805
   si1_1   Si     0.735618     0.435522     0.631102
   si1_1   Si     0.727743     0.450696     0.602184
   si1_1   Si     0.724478     0.481778     0.658409
   si1_1   Si     0.716603     0.496953     0.629491
   si1_1   Si     0.734603     0.483499     0.604521
   si1_1   Si     0.726728     0.498674     0.575603
   si1_1   Si     0.723464     0.529756     0.631828
   si1_1   Si     0.715589     0.544930     0.602910
   si1_1   Si     0.683867     0.492779     0.623207
   si1_1   Si     0.675992     0.507954     0.594289
   si1_1   Si     0.672728     0.539036     0.650514
   si1_1   Si     0.664853     0.554210     0.621596
   si1_1   Si     0.682853     0.540757     0.596626
   si1_1   Si     0.674978     0.555931     0.567708
   si1_1   Si     0.671713     0.587013     0.623933
   si1_1   Si     0.663838     0.602188     0.595015
   si1_1   Si     0.632117     0.550037     0.615312
   si1_1   Si     0.624242     0.565211     0.586394
   si1_1   Si     0.631102     0.598014     0.588731
   si1_1   Si     0.893120     0.280645     0.571981
   si1_1   Si     0.861399     0.228493     0.592278
   si1_1   Si     0.853524     0.243668     0.563360
   si1_1   Si     0.850259     0.274750     0.619585
   si1_1   Si     0.842384     0.289925     0.590667
   si1_1   Si     0.860384     0.276471     0.565697
   si1_1   Si     0.852509     0.291646     0.536779
   si1_1   Si     0.849244     0.322727     0.593004
   si1_1   Si     0.841369     0.337902     0.564086
   si1_1   Si     0.809648     0.285751     0.584383
   si1_1   Si     0.801773     0.300926     0.555465
   si1_1   Si     0.798508     0.332007     0.611690
   si1_1   Si     0.790633     0.347182     0.582772
   si1_1   Si     0.808634     0.333728     0.557802
   si1_1   Si     0.800759     0.348903     0.528884
   si1_1   Si     0.797494     0.379985     0.585109
   si1_1   Si     0.789619     0.395160     0.556191
   si1_1   Si     0.757898     0.343008     0.576488
   si1_1   Si     0.750023     0.358183     0.547570
   si1_1   Si     0.746758     0.389265     0.603795
   si1_1   Si     0.738883     0.404440     0.574877
   si1_1   Si     0.756883     0.390986     0.549907
   si1_1   Si     0.749008     0.406161     0.520989
   si1_1   Si     0.745743     0.437242     0.577214
   si1_1   Si     0.737868     0.452417     0.548296
   si1_1   Si     0.706147     0.400266     0.568593
   si1_1   Si     0.698272     0.415441     0.539675
   si1_1   Si     0.695007     0.446523     0.595900
   si1_1   Si     0.687132     0.461697     0.566982
   si1_1   Si     0.705132     0.448244     0.542012
   si1_1   Si     0.697258     0.463418     0.513094
   si1_1   Si     0.693993     0.494500     0.569319
   si1_1   Si     0.686118     0.509675     0.540401
   si1_1   Si     0.654396     0.457524     0.560698
   si1_1   Si     0.646521     0.472698     0.531780
   si1_1   Si     0.643257     0.503780     0.588005
   si1_1   Si     0.635382     0.518955     0.559087
   si1_1   Si     0.653382     0.505501     0.534117
   si1_1   Si     0.645507     0.520676     0.505199
   si1_1   Si     0.642242     0.551758     0.561424
   si1_1   Si     0.634367     0.566932     0.532506
   si1_1   Si     0.602646     0.514781     0.552803
   si1_1   Si     0.594771     0.529956     0.523885
   si1_1   Si     0.591506     0.561038     0.580110
   si1_1   Si     0.583631     0.576213     0.551192
   si1_1   Si     0.601631     0.562759     0.526222
   si1_1   Si     0.593756     0.577933     0.497304
   si1_1   Si     0.550895     0.572039     0.544908
   si1_1   Si     0.543020     0.587214     0.515990
   si1_1   Si     0.871524     0.230214     0.538390
   si1_1   Si     0.863649     0.245389     0.509472
   si1_1   Si     0.831928     0.193238     0.529769
   si1_1   Si     0.824053     0.208413     0.500851
   si1_1   Si     0.820788     0.239494     0.557076
   si1_1   Si     0.812913     0.254669     0.528158
   si1_1   Si     0.830913     0.241215     0.503188
   si1_1   Si     0.823038     0.256390     0.474270
   si1_1   Si     0.819773     0.287472     0.530495
   si1_1   Si     0.811898     0.302647     0.501577
   si1_1   Si     0.780177     0.250495     0.521874
   si1_1   Si     0.772302     0.265670     0.492956
   si1_1   Si     0.769037     0.296752     0.549181
   si1_1   Si     0.761162     0.311927     0.520263
   si1_1   Si     0.779163     0.298473     0.495293
   si1_1   Si     0.771288     0.313648     0.466375
   si1_1   Si     0.768023     0.344729     0.522600
   si1_1   Si     0.760148     0.359904     0.493682
   si1_1   Si     0.728427     0.307753     0.513979
   si1_1   Si     0.720552     0.322928     0.485061
   si1_1   Si     0.717287     0.354009     0.541286
   si1_1   Si     0.709412     0.369184     0.512368
   si1_1   Si     0.727412     0.355730     0.487398
   si1_1   Si     0.719537     0.370905     0.458480
   si1_1   Si     0.716272     0.401987     0.514705
   si1_1   Si     0.708397     0.417162     0.485787
   si1_1   Si     0.676676     0.365010     0.506084
   si1_1   Si     0.668801     0.380185     0.477166
   si1_1   Si     0.665536     0.411267     0.533391
   si1_1   Si     0.657661     0.426442     0.504473
   si1_1   Si     0.675662     0.412988     0.479503
   si1_1   Si     0.667787     0.428163     0.450585
   si1_1   Si     0.664522     0.459245     0.506810
   si1_1   Si     0.656647     0.474419     0.477892
   si1_1   Si     0.624926     0.422268     0.498189
   si1_1   Si     0.617051     0.437443     0.469271
   si1_1   Si     0.613786     0.468525     0.525496
   si1_1   Si     0.605911     0.483699     0.496578
   si1_1   Si     0.623911     0.470246     0.471608
   si1_1   Si     0.616036     0.485420     0.442690
   si1_1   Si     0.612771     0.516502     0.498915
   si1_1   Si     0.604896     0.531677     0.469997
   si1_1   Si     0.573175     0.479526     0.490294
   si1_1   Si     0.565300     0.494700     0.461376
   si1_1   Si     0.562035     0.525782     0.517601
   si1_1   Si     0.554160     0.540957     0.488683
   si1_1   Si     0.572161     0.527503     0.463713
   si1_1   Si     0.564286     0.542678     0.434795
   si1_1   Si     0.561021     0.573760     0.491020
   si1_1   Si     0.553146     0.588935     0.462102
   si1_1   Si     0.521424     0.536783     0.482399
   si1_1   Si     0.513550     0.551958     0.453481
   si1_1   Si     0.510285     0.583040     0.509706
   si1_1   Si     0.520410     0.584761     0.455818
   si1_1   Si     0.835193     0.162156     0.473544
   si1_1   Si     0.842053     0.194959     0.475881
   si1_1   Si     0.834178     0.210134     0.446963
   si1_1   Si     0.802457     0.157982     0.467260
   si1_1   Si     0.791317     0.204239     0.494567
   si1_1   Si     0.783442     0.219414     0.465649
   si1_1   Si     0.801442     0.205960     0.440679
   si1_1   Si     0.790303     0.252216     0.467986
   si1_1   Si     0.782428     0.267391     0.439068
   si1_1   Si     0.750706     0.215240     0.459365
   si1_1   Si     0.739567     0.261496     0.486672
   si1_1   Si     0.731692     0.276671     0.457754
   si1_1   Si     0.749692     0.263217     0.432784
   si1_1   Si     0.738552     0.309474     0.460091
   si1_1   Si     0.730677     0.324649     0.431173
   si1_1   Si     0.698956     0.272497     0.451470
   si1_1   Si     0.691081     0.287672     0.422552
   si1_1   Si     0.687816     0.318754     0.478777
   si1_1   Si     0.679941     0.333929     0.449859
   si1_1   Si     0.697941     0.320475     0.424889
   si1_1   Si     0.686801     0.366731     0.452196
   si1_1   Si     0.678926     0.381906     0.423278
   si1_1   Si     0.647205     0.329755     0.443575
   si1_1   Si     0.639330     0.344930     0.414657
   si1_1   Si     0.636065     0.376011     0.470882
   si1_1   Si     0.628190     0.391186     0.441964
   si1_1   Si     0.646191     0.377732     0.416993
   si1_1   Si     0.635051     0.423989     0.444301
   si1_1   Si     0.627176     0.439164     0.415383
   si1_1   Si     0.595455     0.387012     0.435680
   si1_1   Si     0.587580     0.402187     0.406762
   si1_1   Si     0.584315     0.433269     0.462987
   si1_1   Si     0.576440     0.448444     0.434069
   si1_1   Si     0.594440     0.434990     0.409098
   si1_1   Si     0.586565     0.450165     0.380181
   si1_1   Si     0.583300     0.481247     0.436406
   si1_1   Si     0.575425     0.496421     0.407488
   si1_1   Si     0.543704     0.444270     0.427785
   si1_1   Si     0.535829     0.459445     0.398867
   si1_1   Si     0.532564     0.490527     0.455092
   si1_1   Si     0.524689     0.505701     0.426174
   si1_1   Si     0.542690     0.492248     0.401203
   si1_1   Si     0.534815     0.507422     0.372285
   si1_1   Si     0.531550     0.538504     0.428510
   si1_1   Si     0.523675     0.553679     0.399593
   si1_1   Si     0.491954     0.501528     0.419890
   si1_1   Si     0.958922     0.383958     0.699336
   si1_1   Si     0.951047     0.399133     0.670418
   si1_1   Si     0.969047     0.385679     0.645448
   si1_1   Si     0.961172     0.400854     0.616530
   si1_1   Si     0.918311     0.394959     0.664134
   si1_1   Si     0.910436     0.410134     0.635216
   si1_1   Si     0.907172     0.441216     0.691441
   si1_1   Si     0.899297     0.456391     0.662523
   si1_1   Si     0.917297     0.442937     0.637553
   si1_1   Si     0.909422     0.458112     0.608635
   si1_1   Si     0.866561     0.452217     0.656239
   si1_1   Si     0.858686     0.467392     0.627321
   si1_1   Si     0.855421     0.498474     0.683546
   si1_1   Si     0.847546     0.513648     0.654628
   si1_1   Si     0.814810     0.509475     0.648344
   si1_1   Si     0.806935     0.524649     0.619426
   si1_1   Si     0.803670     0.555731     0.675651
   si1_1   Si     0.763060     0.566732     0.640449
   si1_1   Si     0.932716     0.317621     0.580602
   si1_1   Si     0.929451     0.348703     0.636827
   si1_1   Si     0.921576     0.363878     0.607909
   si1_1   Si     0.939577     0.350424     0.582938
   si1_1   Si     0.931702     0.365599     0.554021
   si1_1   Si     0.928437     0.396680     0.610245
   si1_1   Si     0.920562     0.411855     0.581328
   si1_1   Si     0.888840     0.359704     0.601625
   si1_1   Si     0.880965     0.374879     0.572707
   si1_1   Si     0.877701     0.405960     0.628932
   si1_1   Si     0.869826     0.421135     0.600014
   si1_1   Si     0.887826     0.407681     0.575043
   si1_1   Si     0.879951     0.422856     0.546125
   si1_1   Si     0.876686     0.453938     0.602350
   si1_1   Si     0.868811     0.469113     0.573433
   si1_1   Si     0.837090     0.416961     0.593730
   si1_1   Si     0.829215     0.432136     0.564812
   si1_1   Si     0.825950     0.463218     0.621037
   si1_1   Si     0.818075     0.478393     0.592119
   si1_1   Si     0.836075     0.464939     0.567148
   si1_1   Si     0.785339     0.474219     0.585835
   si1_1   Si     0.777464     0.489394     0.556917
   si1_1   Si     0.774200     0.520476     0.613142
   si1_1   Si     0.766325     0.535650     0.584224
   si1_1   Si     0.733589     0.531477     0.577940
   si1_1   Si     0.725714     0.546651     0.549022
   si1_1   Si     0.722449     0.577733     0.605247
   si1_1   Si     0.681838     0.588734     0.570045
   si1_1   Si     0.942841     0.319342     0.526713
   si1_1   Si     0.903245     0.282366     0.518093
   si1_1   Si     0.899980     0.313447     0.574318
   si1_1   Si     0.892105     0.328622     0.545400
   si1_1   Si     0.910106     0.315168     0.520429
   si1_1   Si     0.902231     0.330343     0.491511
   si1_1   Si     0.898966     0.361425     0.547736
   si1_1   Si     0.891091     0.376600     0.518818
   si1_1   Si     0.859370     0.324448     0.539116
   si1_1   Si     0.851495     0.339623     0.510198
   si1_1   Si     0.848230     0.370705     0.566423
   si1_1   Si     0.840355     0.385880     0.537505
   si1_1   Si     0.858355     0.372426     0.512534
   si1_1   Si     0.850480     0.387601     0.483616
   si1_1   Si     0.847215     0.418682     0.539841
   si1_1   Si     0.839340     0.433857     0.510923
   si1_1   Si     0.807619     0.381706     0.531221
   si1_1   Si     0.799744     0.396881     0.502303
   si1_1   Si     0.796479     0.427962     0.558528
   si1_1   Si     0.788604     0.443137     0.529610
   si1_1   Si     0.806605     0.429683     0.504639
   si1_1   Si     0.798730     0.444858     0.475721
   si1_1   Si     0.795465     0.475940     0.531946
   si1_1   Si     0.755869     0.438963     0.523325
   si1_1   Si     0.747994     0.454138     0.494408
   si1_1   Si     0.744729     0.485220     0.550633
   si1_1   Si     0.736854     0.500395     0.521715
   si1_1   Si     0.754854     0.486941     0.496744
   si1_1   Si     0.704118     0.496221     0.515430
   si1_1   Si     0.696243     0.511396     0.486513
   si1_1   Si     0.692978     0.542478     0.542738
   si1_1   Si     0.685103     0.557652     0.513820
   si1_1   Si     0.652367     0.553479     0.507535
   si1_1   Si     0.644492     0.568653     0.478617
   si1_1   Si     0.641228     0.599735     0.534842
   si1_1   Si     0.921245     0.268912     0.493122
   si1_1   Si     0.881649     0.231935     0.484501
   si1_1   Si     0.873774     0.247110     0.455584
   si1_1   Si     0.870509     0.278192     0.511809
   si1_1   Si     0.862634     0.293367     0.482891
   si1_1   Si     0.880635     0.279913     0.457920
   si1_1   Si     0.872760     0.295088     0.429002
   si1_1   Si     0.869495     0.326169     0.485227
   si1_1   Si     0.861620     0.341344     0.456309
   si1_1   Si     0.829899     0.289193     0.476606
   si1_1   Si     0.822024     0.304368     0.447688
   si1_1   Si     0.818759     0.335449     0.503913
   si1_1   Si     0.810884     0.350624     0.474996
   si1_1   Si     0.828884     0.337170     0.450025
   si1_1   Si     0.821009     0.352345     0.421107
   si1_1   Si     0.817744     0.383427     0.477332
   si1_1   Si     0.809869     0.398602     0.448414
   si1_1   Si     0.778148     0.346450     0.468711
   si1_1   Si     0.770273     0.361625     0.439793
   si1_1   Si     0.767008     0.392707     0.496018
   si1_1   Si     0.759133     0.407882     0.467100
   si1_1   Si     0.777134     0.394428     0.442130
   si1_1   Si     0.769259     0.409603     0.413212
   si1_1   Si     0.765994     0.440684     0.469437
   si1_1   Si     0.758119     0.455859     0.440519
   si1_1   Si     0.726398     0.403708     0.460816
   si1_1   Si     0.718523     0.418883     0.431898
   si1_1   Si     0.715258     0.449964     0.488123
   si1_1   Si     0.707383     0.465139     0.459205
   si1_1   Si     0.725383     0.451685     0.434235
   si1_1   Si     0.717508     0.466860     0.405317
   si1_1   Si     0.714243     0.497942     0.461542
   si1_1   Si     0.674647     0.460966     0.452921
   si1_1   Si     0.666772     0.476140     0.424003
   si1_1   Si     0.663507     0.507222     0.480228
   si1_1   Si     0.655632     0.522397     0.451310
   si1_1   Si     0.673633     0.508943     0.426340
   si1_1   Si     0.622897     0.518223     0.445026
   si1_1   Si     0.615022     0.533398     0.416108
   si1_1   Si     0.611757     0.564480     0.472333
   si1_1   Si     0.603882     0.579654     0.443415
   si1_1   Si     0.571146     0.575481     0.437131
   si1_1   Si     0.563271     0.590655     0.408213
   si1_1   Si     0.852178     0.196680     0.421992
   si1_1   Si     0.841039     0.242936     0.449299
   si1_1   Si     0.833164     0.258111     0.420381
   si1_1   Si     0.840024     0.290914     0.422718
   si1_1   Si     0.832149     0.306089     0.393800
   si1_1   Si     0.800428     0.253937     0.414097
   si1_1   Si     0.789288     0.300194     0.441404
   si1_1   Si     0.781413     0.315369     0.412486
   si1_1   Si     0.788273     0.348171     0.414823
   si1_1   Si     0.780399     0.363346     0.385905
   si1_1   Si     0.748677     0.311195     0.406202
   si1_1   Si     0.737537     0.357451     0.433509
   si1_1   Si     0.729662     0.372626     0.404591
   si1_1   Si     0.747663     0.359172     0.379621
   si1_1   Si     0.736523     0.405429     0.406928
   si1_1   Si     0.728648     0.420604     0.378010
   si1_1   Si     0.696927     0.368452     0.398307
   si1_1   Si     0.685787     0.414709     0.425614
   si1_1   Si     0.677912     0.429884     0.396696
   si1_1   Si     0.695912     0.416430     0.371726
   si1_1   Si     0.684772     0.462687     0.399033
   si1_1   Si     0.676897     0.477861     0.370115
   si1_1   Si     0.645176     0.425710     0.390412
   si1_1   Si     0.634036     0.471967     0.417719
   si1_1   Si     0.626161     0.487141     0.388801
   si1_1   Si     0.644162     0.473688     0.363831
   si1_1   Si     0.633022     0.519944     0.391138
   si1_1   Si     0.593426     0.482968     0.382517
   si1_1   Si     0.582286     0.529224     0.409824
   si1_1   Si     0.574411     0.544399     0.380906
   si1_1   Si     0.592411     0.530945     0.355936
   si1_1   Si     0.541675     0.540225     0.374622
   si1_1   Si     0.979173     0.387400     0.591559
   si1_1   Si     0.938562     0.398401     0.556357
   si1_1   Si     0.909091     0.363146     0.493848
   si1_1   Si     0.897951     0.409402     0.521155
   si1_1   Si     0.857341     0.420403     0.485953
   si1_1   Si     0.868480     0.374147     0.458646
   si1_1   Si     0.860605     0.389322     0.429728
   si1_1   Si     0.827870     0.385148     0.423444
   si1_1   Si     0.819995     0.400323     0.394526
   si1_1   Si     0.816730     0.431404     0.450751
   si1_1   Si     0.776119     0.442405     0.415549
   si1_1   Si     0.839010     0.338891     0.396137
   si1_1   Si     0.787259     0.396149     0.388242
   si1_1   Si     0.779384     0.411324     0.359324
   si1_1   Si     0.735508     0.453406     0.380347
   si1_1   Si     0.008586     0.854575     0.756389
   si1_1   Si     0.008006     0.756603     0.707004
   si1_1   Si     0.008296     0.805589     0.731697
   si1_1   Si     0.026644     0.828773     0.685487
   si1_1   Si     0.026934     0.877759     0.710180
   si1_1   Si     0.007427     0.658630     0.657619
   si1_1   Si     0.007717     0.707616     0.682312
   si1_1   Si     0.026064     0.730801     0.636103
   si1_1   Si     0.026354     0.779787     0.660795
   si1_1   Si     0.017250     0.794385     0.631941
   si1_1   Si     0.044702     0.802971     0.614586
   si1_1   Si     0.017540     0.843371     0.656634
   si1_1   Si     0.044992     0.851957     0.639278
   si1_1   Si     0.017464     0.845068     0.592329
   si1_1   Si     0.006847     0.560658     0.608235
   si1_1   Si     0.007137     0.609644     0.632927
   si1_1   Si     0.025485     0.632828     0.586718
   si1_1   Si     0.025775     0.681815     0.611410
   si1_1   Si     0.016670     0.696413     0.582556
   si1_1   Si     0.044122     0.704999     0.565201
   si1_1   Si     0.016960     0.745399     0.607249
   si1_1   Si     0.044412     0.753985     0.589893
   si1_1   Si     0.017175     0.796082     0.567636
   si1_1   Si     0.035308     0.768583     0.561040
   si1_1   Si     0.062760     0.777169     0.543684
   si1_1   Si     0.035598     0.817569     0.585732
   si1_1   Si     0.063050     0.826155     0.568377
   si1_1   Si     0.053945     0.840753     0.539523
   si1_1   Si     0.008307     0.749814     0.964223
   si1_1   Si     0.008597     0.798800     0.988915
   si1_1   Si     0.026945     0.821984     0.942706
   si1_1   Si     0.027234     0.870970     0.967399
   si1_1   Si     0.045582     0.894154     0.921189
   si1_1   Si     0.007728     0.651841     0.914838
   si1_1   Si     0.008017     0.700828     0.939531
   si1_1   Si     0.026365     0.724012     0.893321
   si1_1   Si     0.026655     0.772998     0.918014
   si1_1   Si     0.017551     0.787596     0.889160
   si1_1   Si     0.045003     0.796182     0.871805
   si1_1   Si     0.017840     0.836582     0.913852
   si1_1   Si     0.045292     0.845168     0.896497
   si1_1   Si     0.017765     0.838279     0.849548
   si1_1   Si     0.018055     0.887266     0.874240
   si1_1   Si     0.036188     0.859766     0.867643
   si1_1   Si     0.063640     0.868352     0.850288
   si1_1   Si     0.008951     0.901864     0.845386
   si1_1   Si     0.036403     0.910450     0.828031
   si1_1   Si     0.007148     0.553869     0.865453
   si1_1   Si     0.007438     0.602855     0.890146
   si1_1   Si     0.025786     0.626040     0.843936
   si1_1   Si     0.026075     0.675026     0.868629
   si1_1   Si     0.016971     0.689624     0.839775
   si1_1   Si     0.044423     0.698210     0.822420
   si1_1   Si     0.017261     0.738610     0.864467
   si1_1   Si     0.044713     0.747196     0.847112
   si1_1   Si     0.017186     0.740307     0.800163
   si1_1   Si     0.017475     0.789293     0.824855
   si1_1   Si     0.035609     0.761794     0.818258
   si1_1   Si     0.063061     0.770380     0.800903
   si1_1   Si     0.035898     0.810780     0.842951
   si1_1   Si     0.063350     0.819366     0.825595
   si1_1   Si     0.008371     0.803891     0.796001
   si1_1   Si     0.035823     0.812477     0.778646
   si1_1   Si     0.008661     0.852878     0.820694
   si1_1   Si     0.036113     0.861464     0.803338
   si1_1   Si     0.054246     0.833964     0.796741
   si1_1   Si     0.081698     0.842550     0.779386
   si1_1   Si     0.054536     0.882950     0.821434
   si1_1   Si     0.081988     0.891536     0.804078
   si1_1   Si     0.027009     0.876062     0.774485
   si1_1   Si     0.054461     0.884648     0.757129
   si1_1   Si     0.006569     0.455897     0.816068
   si1_1   Si     0.006858     0.504883     0.840761
   si1_1   Si     0.025206     0.528067     0.794552
   si1_1   Si     0.025496     0.577053     0.819244
   si1_1   Si     0.016392     0.591652     0.790390
   si1_1   Si     0.043844     0.600238     0.773035
   si1_1   Si     0.016681     0.640638     0.815083
   si1_1   Si     0.044133     0.649224     0.797727
   si1_1   Si     0.016606     0.642335     0.750778
   si1_1   Si     0.016896     0.691321     0.775470
   si1_1   Si     0.035029     0.663822     0.768873
   si1_1   Si     0.062481     0.672408     0.751518
   si1_1   Si     0.035319     0.712808     0.793566
   si1_1   Si     0.062771     0.721394     0.776210
   si1_1   Si     0.007792     0.705919     0.746617
   si1_1   Si     0.035244     0.714505     0.729261
   si1_1   Si     0.008081     0.754905     0.771309
   si1_1   Si     0.035533     0.763491     0.753954
   si1_1   Si     0.053667     0.735992     0.747357
   si1_1   Si     0.081119     0.744578     0.730001
   si1_1   Si     0.053956     0.784978     0.772049
   si1_1   Si     0.081408     0.793564     0.754694
   si1_1   Si     0.026429     0.778090     0.725100
   si1_1   Si     0.053881     0.786675     0.707744
   si1_1   Si     0.026719     0.827076     0.749792
   si1_1   Si     0.054171     0.835662     0.732437
   si1_1   Si     0.072304     0.808162     0.725840
   si1_1   Si     0.099756     0.816748     0.708484
   si1_1   Si     0.072594     0.857149     0.750532
   si1_1   Si     0.100046     0.865734     0.733177
   si1_1   Si     0.045067     0.850260     0.703583
   si1_1   Si     0.072519     0.858846     0.686228
   si1_1   Si     0.090942     0.880333     0.704323
   si1_1   Si     0.006279     0.406911     0.791376
   si1_1   Si     0.024627     0.430095     0.745167
   si1_1   Si     0.024916     0.479081     0.769859
   si1_1   Si     0.015812     0.493679     0.741005
   si1_1   Si     0.043264     0.502265     0.723650
   si1_1   Si     0.016102     0.542665     0.765698
   si1_1   Si     0.043554     0.551251     0.748342
   si1_1   Si     0.016027     0.544363     0.701393
   si1_1   Si     0.016316     0.593349     0.726086
   si1_1   Si     0.034450     0.565850     0.719489
   si1_1   Si     0.061902     0.574436     0.702133
   si1_1   Si     0.034739     0.614836     0.744181
   si1_1   Si     0.062191     0.623422     0.726826
   si1_1   Si     0.007212     0.607947     0.697232
   si1_1   Si     0.034664     0.616533     0.679876
   si1_1   Si     0.007502     0.656933     0.721924
   si1_1   Si     0.034954     0.665519     0.704569
   si1_1   Si     0.053087     0.638020     0.697972
   si1_1   Si     0.080539     0.646606     0.680616
   si1_1   Si     0.053377     0.687006     0.722664
   si1_1   Si     0.080829     0.695592     0.705309
   si1_1   Si     0.025850     0.680117     0.675715
   si1_1   Si     0.053302     0.688703     0.658359
   si1_1   Si     0.026140     0.729103     0.700407
   si1_1   Si     0.053592     0.737689     0.683052
   si1_1   Si     0.071725     0.710190     0.676455
   si1_1   Si     0.099177     0.718776     0.659100
   si1_1   Si     0.072014     0.759176     0.701147
   si1_1   Si     0.099466     0.767762     0.683792
   si1_1   Si     0.044487     0.752288     0.654198
   si1_1   Si     0.071939     0.760874     0.636843
   si1_1   Si     0.044777     0.801274     0.678890
   si1_1   Si     0.072229     0.809860     0.661535
   si1_1   Si     0.090362     0.782360     0.654938
   si1_1   Si     0.117814     0.790946     0.637583
   si1_1   Si     0.090652     0.831347     0.679631
   si1_1   Si     0.118104     0.839933     0.662275
   si1_1   Si     0.063125     0.824458     0.632681
   si1_1   Si     0.090577     0.833044     0.615326
   si1_1   Si     0.063415     0.873444     0.657374
   si1_1   Si     0.109000     0.854531     0.633421
   si1_1   Si     0.136452     0.863117     0.616066
   si1_1   Si     0.024337     0.381109     0.720474
   si1_1   Si     0.015233     0.395707     0.691621
   si1_1   Si     0.042685     0.404293     0.674265
   si1_1   Si     0.015522     0.444693     0.716313
   si1_1   Si     0.042974     0.453279     0.698958
   si1_1   Si     0.015447     0.446390     0.652008
   si1_1   Si     0.015737     0.495377     0.676701
   si1_1   Si     0.033870     0.467877     0.670104
   si1_1   Si     0.061322     0.476463     0.652748
   si1_1   Si     0.034160     0.516864     0.694796
   si1_1   Si     0.061612     0.525449     0.677441
   si1_1   Si     0.006633     0.509975     0.647847
   si1_1   Si     0.034085     0.518561     0.630491
   si1_1   Si     0.006923     0.558961     0.672539
   si1_1   Si     0.034375     0.567547     0.655184
   si1_1   Si     0.052508     0.540048     0.648587
   si1_1   Si     0.079960     0.548634     0.631232
   si1_1   Si     0.052797     0.589034     0.673279
   si1_1   Si     0.080249     0.597620     0.655924
   si1_1   Si     0.025270     0.582145     0.626330
   si1_1   Si     0.052722     0.590731     0.608975
   si1_1   Si     0.025560     0.631131     0.651022
   si1_1   Si     0.053012     0.639717     0.633667
   si1_1   Si     0.071145     0.612218     0.627070
   si1_1   Si     0.098597     0.620804     0.609715
   si1_1   Si     0.071435     0.661204     0.651763
   si1_1   Si     0.098887     0.669790     0.634407
   si1_1   Si     0.043908     0.654315     0.604813
   si1_1   Si     0.071360     0.662901     0.587458
   si1_1   Si     0.044198     0.703301     0.629506
   si1_1   Si     0.071650     0.711887     0.612150
   si1_1   Si     0.089783     0.684388     0.605553
   si1_1   Si     0.117235     0.692974     0.588198
   si1_1   Si     0.090073     0.733374     0.630246
   si1_1   Si     0.117525     0.741960     0.612890
   si1_1   Si     0.062545     0.726486     0.583296
   si1_1   Si     0.089997     0.735072     0.565941
   si1_1   Si     0.062835     0.775472     0.607989
   si1_1   Si     0.090287     0.784058     0.590633
   si1_1   Si     0.108420     0.756558     0.584036
   si1_1   Si     0.135872     0.765144     0.566681
   si1_1   Si     0.108710     0.805545     0.608729
   si1_1   Si     0.136162     0.814131     0.591374
   si1_1   Si     0.081183     0.798656     0.561780
   si1_1   Si     0.108635     0.807242     0.544424
   si1_1   Si     0.081473     0.847642     0.586472
   si1_1   Si     0.033580     0.418891     0.645411
   si1_1   Si     0.061032     0.427477     0.628056
   si1_1   Si     0.006343     0.460989     0.623154
   si1_1   Si     0.033795     0.469575     0.605799
   si1_1   Si     0.051928     0.442075     0.599202
   si1_1   Si     0.079380     0.450661     0.581847
   si1_1   Si     0.052218     0.491062     0.623894
   si1_1   Si     0.079670     0.499648     0.606539
   si1_1   Si     0.024981     0.533159     0.601638
   si1_1   Si     0.052433     0.541745     0.584282
   si1_1   Si     0.070566     0.514246     0.577685
   si1_1   Si     0.098018     0.522832     0.560330
   si1_1   Si     0.070856     0.563232     0.602378
   si1_1   Si     0.098308     0.571818     0.585022
   si1_1   Si     0.043618     0.605329     0.580121
   si1_1   Si     0.071070     0.613915     0.562765
   si1_1   Si     0.089203     0.586416     0.556168
   si1_1   Si     0.089493     0.635402     0.580861
   si1_1   Si     0.116945     0.643988     0.563505
   si1_1   Si     0.062256     0.677499     0.558604
   si1_1   Si     0.089708     0.686085     0.541249
   si1_1   Si     0.108131     0.707572     0.559344
   si1_1   Si     0.080893     0.749670     0.537087
   si1_1   Si     0.035545     0.707716     0.986480
   si1_1   Si     0.081419     0.737789     0.987220
   si1_1   Si     0.026730     0.771301     0.982318
   si1_1   Si     0.054182     0.779887     0.964963
   si1_1   Si     0.054472     0.828873     0.989655
   si1_1   Si     0.072605     0.801374     0.983059
   si1_1   Si     0.100057     0.809959     0.965703
   si1_1   Si     0.100347     0.858946     0.990396
   si1_1   Si     0.045368     0.843471     0.960802
   si1_1   Si     0.072820     0.852057     0.943446
   si1_1   Si     0.091243     0.873544     0.961542
   si1_1   Si     0.118695     0.882130     0.944186
   si1_1   Si     0.016113     0.486890     0.998224
   si1_1   Si     0.043565     0.495476     0.980869
   si1_1   Si     0.016328     0.537574     0.958612
   si1_1   Si     0.016617     0.586560     0.983304
   si1_1   Si     0.034750     0.559061     0.976707
   si1_1   Si     0.062202     0.567647     0.959352
   si1_1   Si     0.062492     0.616633     0.984044
   si1_1   Si     0.007513     0.601158     0.954450
   si1_1   Si     0.034965     0.609744     0.937095
   si1_1   Si     0.007803     0.650144     0.979143
   si1_1   Si     0.035255     0.658730     0.961787
   si1_1   Si     0.053388     0.631231     0.955190
   si1_1   Si     0.080840     0.639817     0.937835
   si1_1   Si     0.053678     0.680217     0.979883
   si1_1   Si     0.081130     0.688803     0.962528
   si1_1   Si     0.026151     0.673328     0.932934
   si1_1   Si     0.053603     0.681914     0.915578
   si1_1   Si     0.026440     0.722315     0.957626
   si1_1   Si     0.053892     0.730900     0.940271
   si1_1   Si     0.072026     0.703401     0.933674
   si1_1   Si     0.099478     0.711987     0.916318
   si1_1   Si     0.072315     0.752387     0.958366
   si1_1   Si     0.099767     0.760973     0.941011
   si1_1   Si     0.044788     0.745499     0.911417
   si1_1   Si     0.072240     0.754085     0.894061
   si1_1   Si     0.045078     0.794485     0.936109
   si1_1   Si     0.072530     0.803071     0.918754
   si1_1   Si     0.090663     0.775572     0.912157
   si1_1   Si     0.118115     0.784157     0.894802
   si1_1   Si     0.090953     0.824558     0.936849
   si1_1   Si     0.118405     0.833144     0.919494
   si1_1   Si     0.063426     0.817669     0.889900
   si1_1   Si     0.090878     0.826255     0.872545
   si1_1   Si     0.063715     0.866655     0.914592
   si1_1   Si     0.091167     0.875241     0.897237
   si1_1   Si     0.109301     0.847742     0.890640
   si1_1   Si     0.136753     0.856328     0.873285
   si1_1   Si     0.109590     0.896728     0.915332
   si1_1   Si     0.137042     0.905314     0.897977
   si1_1   Si     0.082063     0.889839     0.868383
   si1_1   Si     0.109515     0.898425     0.851028
   si1_1   Si     0.127938     0.919912     0.869123
   si1_1   Si     0.155390     0.928498     0.851768
   si1_1   Si     0.015823     0.437904     0.973532
   si1_1   Si     0.043275     0.446490     0.956176
   si1_1   Si     0.015748     0.439602     0.909227
   si1_1   Si     0.016038     0.488588     0.933919
   si1_1   Si     0.034171     0.461089     0.927322
   si1_1   Si     0.061623     0.469674     0.909967
   si1_1   Si     0.034461     0.510075     0.952015
   si1_1   Si     0.061913     0.518661     0.934660
   si1_1   Si     0.006934     0.503186     0.905066
   si1_1   Si     0.034386     0.511772     0.887710
   si1_1   Si     0.007223     0.552172     0.929758
   si1_1   Si     0.034675     0.560758     0.912403
   si1_1   Si     0.052809     0.533259     0.905806
   si1_1   Si     0.080261     0.541845     0.888450
   si1_1   Si     0.053098     0.582245     0.930498
   si1_1   Si     0.080550     0.590831     0.913143
   si1_1   Si     0.025571     0.575356     0.883549
   si1_1   Si     0.053023     0.583942     0.866193
   si1_1   Si     0.025861     0.624342     0.908241
   si1_1   Si     0.053313     0.632928     0.890886
   si1_1   Si     0.071446     0.605429     0.884289
   si1_1   Si     0.098898     0.614015     0.866933
   si1_1   Si     0.071736     0.654415     0.908981
   si1_1   Si     0.099188     0.663001     0.891626
   si1_1   Si     0.044209     0.647526     0.862032
   si1_1   Si     0.071661     0.656112     0.844677
   si1_1   Si     0.044498     0.696513     0.886724
   si1_1   Si     0.071950     0.705098     0.869369
   si1_1   Si     0.090084     0.677599     0.862772
   si1_1   Si     0.117536     0.686185     0.845417
   si1_1   Si     0.090373     0.726585     0.887464
   si1_1   Si     0.117825     0.735171     0.870109
   si1_1   Si     0.062846     0.719697     0.840515
   si1_1   Si     0.090298     0.728283     0.823160
   si1_1   Si     0.063136     0.768683     0.865208
   si1_1   Si     0.090588     0.777269     0.847852
   si1_1   Si     0.108721     0.749770     0.841255
   si1_1   Si     0.136173     0.758356     0.823900
   si1_1   Si     0.109011     0.798756     0.865948
   si1_1   Si     0.136463     0.807342     0.848592
   si1_1   Si     0.081484     0.791867     0.818998
   si1_1   Si     0.108936     0.800453     0.801643
   si1_1   Si     0.081773     0.840853     0.843691
   si1_1   Si     0.109225     0.849439     0.826335
   si1_1   Si     0.127359     0.821940     0.819738
   si1_1   Si     0.154811     0.830526     0.802383
   si1_1   Si     0.127648     0.870926     0.844431
   si1_1   Si     0.155100     0.879512     0.827075
   si1_1   Si     0.100121     0.864037     0.797482
   si1_1   Si     0.127573     0.872623     0.780126
   si1_1   Si     0.100411     0.913023     0.822174
   si1_1   Si     0.145996     0.894110     0.798222
   si1_1   Si     0.173448     0.902696     0.780866
   si1_1   Si     0.006354     0.405214     0.855681
   si1_1   Si     0.033806     0.413800     0.838325
   si1_1   Si     0.006644     0.454200     0.880373
   si1_1   Si     0.034096     0.462786     0.863018
   si1_1   Si     0.052229     0.435287     0.856421
   si1_1   Si     0.052519     0.484273     0.881113
   si1_1   Si     0.079971     0.492859     0.863758
   si1_1   Si     0.024992     0.477384     0.834164
   si1_1   Si     0.052444     0.485970     0.816809
   si1_1   Si     0.025281     0.526370     0.858856
   si1_1   Si     0.052733     0.534956     0.841501
   si1_1   Si     0.070867     0.507457     0.834904
   si1_1   Si     0.098319     0.516043     0.817549
   si1_1   Si     0.071156     0.556443     0.859596
   si1_1   Si     0.098608     0.565029     0.842241
   si1_1   Si     0.043629     0.549554     0.812647
   si1_1   Si     0.071081     0.558140     0.795292
   si1_1   Si     0.043919     0.598540     0.837340
   si1_1   Si     0.071371     0.607126     0.819984
   si1_1   Si     0.089504     0.579627     0.813387
   si1_1   Si     0.116956     0.588213     0.796032
   si1_1   Si     0.089794     0.628613     0.838080
   si1_1   Si     0.117246     0.637199     0.820724
   si1_1   Si     0.062267     0.621724     0.791130
   si1_1   Si     0.089719     0.630310     0.773775
   si1_1   Si     0.062556     0.670711     0.815823
   si1_1   Si     0.090008     0.679297     0.798467
   si1_1   Si     0.108142     0.651797     0.791870
   si1_1   Si     0.135594     0.660383     0.774515
   si1_1   Si     0.108431     0.700783     0.816563
   si1_1   Si     0.135883     0.709369     0.799207
   si1_1   Si     0.080904     0.693895     0.769613
   si1_1   Si     0.108356     0.702481     0.752258
   si1_1   Si     0.081194     0.742881     0.794306
   si1_1   Si     0.108646     0.751467     0.776951
   si1_1   Si     0.126779     0.723968     0.770354
   si1_1   Si     0.154231     0.732554     0.752998
   si1_1   Si     0.127069     0.772954     0.795046
   si1_1   Si     0.154521     0.781540     0.777691
   si1_1   Si     0.099542     0.766065     0.748097
   si1_1   Si     0.126994     0.774651     0.730741
   si1_1   Si     0.099831     0.815051     0.772789
   si1_1   Si     0.127283     0.823637     0.755434
   si1_1   Si     0.145417     0.796138     0.748837
   si1_1   Si     0.172869     0.804724     0.731481
   si1_1   Si     0.145706     0.845124     0.773529
   si1_1   Si     0.173158     0.853710     0.756174
   si1_1   Si     0.118179     0.838235     0.726580
   si1_1   Si     0.145631     0.846821     0.709224
   si1_1   Si     0.118469     0.887221     0.751272
   si1_1   Si     0.145921     0.895807     0.733917
   si1_1   Si     0.164054     0.868308     0.727320
   si1_1   Si     0.191506     0.876894     0.709965
   si1_1   Si     0.024412     0.379412     0.784779
   si1_1   Si     0.024702     0.428398     0.809472
   si1_1   Si     0.052154     0.436984     0.792116
   si1_1   Si     0.070577     0.458471     0.810212
   si1_1   Si     0.098029     0.467057     0.792856
   si1_1   Si     0.043050     0.451582     0.763262
   si1_1   Si     0.070502     0.460168     0.745907
   si1_1   Si     0.043339     0.500568     0.787955
   si1_1   Si     0.070791     0.509154     0.770599
   si1_1   Si     0.088925     0.481655     0.764002
   si1_1   Si     0.116377     0.490241     0.746647
   si1_1   Si     0.089214     0.530641     0.788695
   si1_1   Si     0.116666     0.539227     0.771339
   si1_1   Si     0.061687     0.523752     0.741745
   si1_1   Si     0.089139     0.532338     0.724390
   si1_1   Si     0.061977     0.572738     0.766438
   si1_1   Si     0.089429     0.581324     0.749083
   si1_1   Si     0.107562     0.553825     0.742486
   si1_1   Si     0.135014     0.562411     0.725130
   si1_1   Si     0.107852     0.602811     0.767178
   si1_1   Si     0.135304     0.611397     0.749823
   si1_1   Si     0.080325     0.595923     0.720229
   si1_1   Si     0.107777     0.604508     0.702873
   si1_1   Si     0.080614     0.644909     0.744921
   si1_1   Si     0.108066     0.653495     0.727566
   si1_1   Si     0.126200     0.625995     0.720969
   si1_1   Si     0.153652     0.634581     0.703613
   si1_1   Si     0.126489     0.674982     0.745661
   si1_1   Si     0.153941     0.683567     0.728306
   si1_1   Si     0.098962     0.668093     0.698712
   si1_1   Si     0.126414     0.676679     0.681356
   si1_1   Si     0.099252     0.717079     0.723404
   si1_1   Si     0.126704     0.725665     0.706049
   si1_1   Si     0.144837     0.698166     0.699452
   si1_1   Si     0.172289     0.706752     0.682097
   si1_1   Si     0.145127     0.747152     0.724144
   si1_1   Si     0.172579     0.755738     0.706789
   si1_1   Si     0.117600     0.740263     0.677195
   si1_1   Si     0.145052     0.748849     0.659840
   si1_1   Si     0.117889     0.789249     0.701887
   si1_1   Si     0.145341     0.797835     0.684532
   si1_1   Si     0.163475     0.770336     0.677935
   si1_1   Si     0.190927     0.778922     0.660580
   si1_1   Si     0.163764     0.819322     0.702628
   si1_1   Si     0.191216     0.827908     0.685272
   si1_1   Si     0.136237     0.812433     0.655678
   si1_1   Si     0.163689     0.821019     0.638323
   si1_1   Si     0.136527     0.861419     0.680371
   si1_1   Si     0.163979     0.870005     0.663015
   si1_1   Si     0.182112     0.842506     0.656418
   si1_1   Si     0.209564     0.851092     0.639063
   si1_1   Si     0.042760     0.402596     0.738570
   si1_1   Si     0.070212     0.411182     0.721214
   si1_1   Si     0.088635     0.432669     0.739310
   si1_1   Si     0.061108     0.425780     0.692361
   si1_1   Si     0.088560     0.434366     0.675005
   si1_1   Si     0.061397     0.474766     0.717053
   si1_1   Si     0.088849     0.483352     0.699698
   si1_1   Si     0.106983     0.455853     0.693101
   si1_1   Si     0.107272     0.504839     0.717793
   si1_1   Si     0.134724     0.513425     0.700438
   si1_1   Si     0.079745     0.497950     0.670844
   si1_1   Si     0.107197     0.506536     0.653488
   si1_1   Si     0.080035     0.546936     0.695536
   si1_1   Si     0.107487     0.555522     0.678181
   si1_1   Si     0.125620     0.528023     0.671584
   si1_1   Si     0.153072     0.536609     0.654229
   si1_1   Si     0.125910     0.577009     0.696276
   si1_1   Si     0.153362     0.585595     0.678921
   si1_1   Si     0.098383     0.570121     0.649327
   si1_1   Si     0.125835     0.578706     0.631972
   si1_1   Si     0.098672     0.619107     0.674019
   si1_1   Si     0.126124     0.627693     0.656664
   si1_1   Si     0.144258     0.600193     0.650067
   si1_1   Si     0.171710     0.608779     0.632712
   si1_1   Si     0.144547     0.649180     0.674759
   si1_1   Si     0.171999     0.657765     0.657404
   si1_1   Si     0.117020     0.642291     0.627810
   si1_1   Si     0.144472     0.650877     0.610455
   si1_1   Si     0.117310     0.691277     0.652503
   si1_1   Si     0.144762     0.699863     0.635147
   si1_1   Si     0.162895     0.672364     0.628550
   si1_1   Si     0.190347     0.680950     0.611195
   si1_1   Si     0.163185     0.721350     0.653243
   si1_1   Si     0.190637     0.729936     0.635887
   si1_1   Si     0.135658     0.714461     0.606293
   si1_1   Si     0.163110     0.723047     0.588938
   si1_1   Si     0.135948     0.763447     0.630986
   si1_1   Si     0.163400     0.772033     0.613630
   si1_1   Si     0.181533     0.744534     0.607033
   si1_1   Si     0.181822     0.793520     0.631726
   si1_1   Si     0.209274     0.802106     0.614371
   si1_1   Si     0.154295     0.786631     0.584777
   si1_1   Si     0.154585     0.835617     0.609469
   si1_1   Si     0.079166     0.399978     0.621459
   si1_1   Si     0.106618     0.408564     0.604104
   si1_1   Si     0.079455     0.448964     0.646151
   si1_1   Si     0.106907     0.457550     0.628796
   si1_1   Si     0.125330     0.479037     0.646891
   si1_1   Si     0.152782     0.487623     0.629536
   si1_1   Si     0.097803     0.472148     0.599942
   si1_1   Si     0.125255     0.480734     0.582587
   si1_1   Si     0.098093     0.521134     0.624635
   si1_1   Si     0.125545     0.529720     0.607279
   si1_1   Si     0.143678     0.502221     0.600682
   si1_1   Si     0.171130     0.510807     0.583327
   si1_1   Si     0.143968     0.551207     0.625375
   si1_1   Si     0.171420     0.559793     0.608019
   si1_1   Si     0.116441     0.544319     0.578425
   si1_1   Si     0.143893     0.552905     0.561070
   si1_1   Si     0.116731     0.593305     0.603118
   si1_1   Si     0.144183     0.601891     0.585762
   si1_1   Si     0.162316     0.574391     0.579165
   si1_1   Si     0.162605     0.623378     0.603858
   si1_1   Si     0.190057     0.631964     0.586502
   si1_1   Si     0.135078     0.616489     0.556909
   si1_1   Si     0.135368     0.665475     0.581601
   si1_1   Si     0.162820     0.674061     0.564246
   si1_1   Si     0.181243     0.695548     0.582341
   si1_1   Si     0.116151     0.495332     0.553733
   si1_1   Si     0.127294     0.767862     0.987960
   si1_1   Si     0.173169     0.797935     0.988700
   si1_1   Si     0.118480     0.831446     0.983799
   si1_1   Si     0.145932     0.840032     0.966443
   si1_1   Si     0.146222     0.889018     0.991136
   si1_1   Si     0.164355     0.861519     0.984539
   si1_1   Si     0.191807     0.870105     0.967183
   si1_1   Si     0.192097     0.919091     0.991876
   si1_1   Si     0.137118     0.903617     0.962282
   si1_1   Si     0.164570     0.912203     0.944926
   si1_1   Si     0.182992     0.933690     0.963022
   si1_1   Si     0.210444     0.942275     0.945666
   si1_1   Si     0.061988     0.516963     0.998964
   si1_1   Si     0.089440     0.525549     0.981609
   si1_1   Si     0.080625     0.589134     0.977447
   si1_1   Si     0.108077     0.597720     0.960092
   si1_1   Si     0.108367     0.646706     0.984784
   si1_1   Si     0.126500     0.619206     0.978187
   si1_1   Si     0.153952     0.627792     0.960832
   si1_1   Si     0.154242     0.676779     0.985525
   si1_1   Si     0.099263     0.661304     0.955931
   si1_1   Si     0.126715     0.669890     0.938575
   si1_1   Si     0.099553     0.710290     0.980623
   si1_1   Si     0.127005     0.718876     0.963268
   si1_1   Si     0.145138     0.691377     0.956671
   si1_1   Si     0.172590     0.699963     0.939315
   si1_1   Si     0.145428     0.740363     0.981363
   si1_1   Si     0.172880     0.748949     0.964008
   si1_1   Si     0.117901     0.733474     0.934414
   si1_1   Si     0.145352     0.742060     0.917058
   si1_1   Si     0.118190     0.782460     0.959106
   si1_1   Si     0.145642     0.791046     0.941751
   si1_1   Si     0.163775     0.763547     0.935154
   si1_1   Si     0.191227     0.772133     0.917798
   si1_1   Si     0.164065     0.812533     0.959846
   si1_1   Si     0.191517     0.821119     0.942491
   si1_1   Si     0.136538     0.805644     0.912897
   si1_1   Si     0.163990     0.814230     0.895542
   si1_1   Si     0.136828     0.854631     0.937589
   si1_1   Si     0.164280     0.863216     0.920234
   si1_1   Si     0.182413     0.835717     0.913637
   si1_1   Si     0.209865     0.844303     0.896282
   si1_1   Si     0.182703     0.884703     0.938329
   si1_1   Si     0.210155     0.893289     0.920974
   si1_1   Si     0.155176     0.877815     0.891380
   si1_1   Si     0.182628     0.886401     0.874025
   si1_1   Si     0.155465     0.926801     0.916073
   si1_1   Si     0.182917     0.935387     0.898717
   si1_1   Si     0.201051     0.907888     0.892120
   si1_1   Si     0.228503     0.916474     0.874765
   si1_1   Si     0.080046     0.491161     0.928063
   si1_1   Si     0.080336     0.540148     0.952755
   si1_1   Si     0.107788     0.548733     0.935400
   si1_1   Si     0.126211     0.570220     0.953495
   si1_1   Si     0.098683     0.563332     0.906546
   si1_1   Si     0.126136     0.571918     0.889190
   si1_1   Si     0.098973     0.612318     0.931238
   si1_1   Si     0.126425     0.620904     0.913883
   si1_1   Si     0.144558     0.593405     0.907286
   si1_1   Si     0.172010     0.601990     0.889930
   si1_1   Si     0.144848     0.642391     0.931978
   si1_1   Si     0.172300     0.650977     0.914623
   si1_1   Si     0.117321     0.635502     0.885029
   si1_1   Si     0.144773     0.644088     0.867674
   si1_1   Si     0.117611     0.684488     0.909721
   si1_1   Si     0.145063     0.693074     0.892366
   si1_1   Si     0.163196     0.665575     0.885769
   si1_1   Si     0.190648     0.674161     0.868414
   si1_1   Si     0.163486     0.714561     0.910461
   si1_1   Si     0.190938     0.723147     0.893106
   si1_1   Si     0.135959     0.707672     0.863512
   si1_1   Si     0.163411     0.716258     0.846157
   si1_1   Si     0.136248     0.756658     0.888205
   si1_1   Si     0.163700     0.765244     0.870849
   si1_1   Si     0.181834     0.737745     0.864252
   si1_1   Si     0.209286     0.746331     0.846897
   si1_1   Si     0.182123     0.786731     0.888945
   si1_1   Si     0.209575     0.795317     0.871589
   si1_1   Si     0.154596     0.779842     0.841995
   si1_1   Si     0.182048     0.788428     0.824640
   si1_1   Si     0.154886     0.828829     0.866688
   si1_1   Si     0.182338     0.837415     0.849332
   si1_1   Si     0.200471     0.809915     0.842735
   si1_1   Si     0.227923     0.818501     0.825380
   si1_1   Si     0.200761     0.858901     0.867428
   si1_1   Si     0.228213     0.867487     0.850072
   si1_1   Si     0.173234     0.852013     0.820478
   si1_1   Si     0.200686     0.860599     0.803123
   si1_1   Si     0.173523     0.900999     0.845171
   si1_1   Si     0.200975     0.909585     0.827816
   si1_1   Si     0.219109     0.882086     0.821219
   si1_1   Si     0.246561     0.890672     0.803863
   si1_1   Si     0.219398     0.931072     0.845911
   si1_1   Si     0.098394     0.514346     0.881853
   si1_1   Si     0.116742     0.537530     0.835644
   si1_1   Si     0.144194     0.546116     0.818289
   si1_1   Si     0.117031     0.586516     0.860337
   si1_1   Si     0.144483     0.595102     0.842981
   si1_1   Si     0.162617     0.567603     0.836384
   si1_1   Si     0.162906     0.616589     0.861077
   si1_1   Si     0.190358     0.625175     0.843721
   si1_1   Si     0.135379     0.609700     0.814127
   si1_1   Si     0.162831     0.618286     0.796772
   si1_1   Si     0.135669     0.658686     0.838820
   si1_1   Si     0.163121     0.667272     0.821464
   si1_1   Si     0.181254     0.639773     0.814867
   si1_1   Si     0.208706     0.648359     0.797512
   si1_1   Si     0.181544     0.688759     0.839560
   si1_1   Si     0.208996     0.697345     0.822204
   si1_1   Si     0.154017     0.681870     0.792610
   si1_1   Si     0.181469     0.690456     0.775255
   si1_1   Si     0.154306     0.730856     0.817303
   si1_1   Si     0.181758     0.739442     0.799948
   si1_1   Si     0.199892     0.711943     0.793351
   si1_1   Si     0.227344     0.720529     0.775995
   si1_1   Si     0.200181     0.760929     0.818043
   si1_1   Si     0.227633     0.769515     0.800688
   si1_1   Si     0.172654     0.754040     0.771094
   si1_1   Si     0.200106     0.762626     0.753738
   si1_1   Si     0.172944     0.803027     0.795786
   si1_1   Si     0.200396     0.811613     0.778431
   si1_1   Si     0.218529     0.784113     0.771834
   si1_1   Si     0.245981     0.792699     0.754478
   si1_1   Si     0.218819     0.833099     0.796526
   si1_1   Si     0.246271     0.841685     0.779171
   si1_1   Si     0.191292     0.826211     0.749577
   si1_1   Si     0.218744     0.834797     0.732221
   si1_1   Si     0.191581     0.875197     0.774269
   si1_1   Si     0.219033     0.883783     0.756914
   si1_1   Si     0.237167     0.856284     0.750317
   si1_1   Si     0.264619     0.864870     0.732962
   si1_1   Si     0.237456     0.905270     0.775009
   si1_1   Si     0.209929     0.898381     0.728060
   si1_1   Si     0.134800     0.511728     0.764742
   si1_1   Si     0.135089     0.560714     0.789435
   si1_1   Si     0.162541     0.569300     0.772079
   si1_1   Si     0.180964     0.590787     0.790175
   si1_1   Si     0.153437     0.583898     0.743226
   si1_1   Si     0.180889     0.592484     0.725870
   si1_1   Si     0.153727     0.632884     0.767918
   si1_1   Si     0.181179     0.641470     0.750563
   si1_1   Si     0.199312     0.613971     0.743966
   si1_1   Si     0.226764     0.622557     0.726610
   si1_1   Si     0.199602     0.662957     0.768658
   si1_1   Si     0.227054     0.671543     0.751303
   si1_1   Si     0.172075     0.656068     0.721709
   si1_1   Si     0.199527     0.664654     0.704353
   si1_1   Si     0.172364     0.705054     0.746401
   si1_1   Si     0.199816     0.713640     0.729046
   si1_1   Si     0.217950     0.686141     0.722449
   si1_1   Si     0.245402     0.694727     0.705094
   si1_1   Si     0.218239     0.735127     0.747141
   si1_1   Si     0.245691     0.743713     0.729786
   si1_1   Si     0.190712     0.728239     0.700192
   si1_1   Si     0.218164     0.736824     0.682837
   si1_1   Si     0.191002     0.777225     0.724884
   si1_1   Si     0.218454     0.785811     0.707529
   si1_1   Si     0.236587     0.758311     0.700932
   si1_1   Si     0.264039     0.766897     0.683577
   si1_1   Si     0.236877     0.807298     0.725625
   si1_1   Si     0.264329     0.815883     0.708269
   si1_1   Si     0.209350     0.800409     0.678675
   si1_1   Si     0.236802     0.808995     0.661320
   si1_1   Si     0.209639     0.849395     0.703368
   si1_1   Si     0.237091     0.857981     0.686012
   si1_1   Si     0.255225     0.830482     0.679415
   si1_1   Si     0.255514     0.879468     0.704108
   si1_1   Si     0.227987     0.872579     0.657158
   si1_1   Si     0.153147     0.534912     0.718533
   si1_1   Si     0.180599     0.543498     0.701178
   si1_1   Si     0.171495     0.558096     0.672324
   si1_1   Si     0.198947     0.566682     0.654969
   si1_1   Si     0.171785     0.607082     0.697016
   si1_1   Si     0.199237     0.615668     0.679661
   si1_1   Si     0.217370     0.588169     0.673064
   si1_1   Si     0.217660     0.637155     0.697756
   si1_1   Si     0.245112     0.645741     0.680401
   si1_1   Si     0.190133     0.630266     0.650807
   si1_1   Si     0.217585     0.638852     0.633452
   si1_1   Si     0.190422     0.679252     0.675500
   si1_1   Si     0.217874     0.687838     0.658144
   si1_1   Si     0.236008     0.660339     0.651547
   si1_1   Si     0.263460     0.668925     0.634192
   si1_1   Si     0.236297     0.709325     0.676240
   si1_1   Si     0.263749     0.717911     0.658884
   si1_1   Si     0.208770     0.702437     0.629290
   si1_1   Si     0.236222     0.711023     0.611935
   si1_1   Si     0.209060     0.751423     0.653983
   si1_1   Si     0.236512     0.760009     0.636627
   si1_1   Si     0.254645     0.732509     0.630030
   si1_1   Si     0.254935     0.781496     0.654723
   si1_1   Si     0.227697     0.823593     0.632466
   si1_1   Si     0.171205     0.509110     0.647632
   si1_1   Si     0.189553     0.532294     0.601422
   si1_1   Si     0.189843     0.581280     0.626115
   si1_1   Si     0.217295     0.589866     0.608759
   si1_1   Si     0.235718     0.611353     0.626855
   si1_1   Si     0.208480     0.653450     0.604598
   si1_1   Si     0.254355     0.683523     0.605338
   si1_1   Si     0.219044     0.828008     0.989440
   si1_1   Si     0.264919     0.858081     0.990180
   si1_1   Si     0.210230     0.891592     0.985279
   si1_1   Si     0.237682     0.900178     0.967923
   si1_1   Si     0.237972     0.949164     0.992616
   si1_1   Si     0.256105     0.921665     0.986019
   si1_1   Si     0.283557     0.930251     0.968663
   si1_1   Si     0.172375     0.649279     0.978928
   si1_1   Si     0.200117     0.706851     0.986265
   si1_1   Si     0.191013     0.721450     0.957411
   si1_1   Si     0.218465     0.730036     0.940055
   si1_1   Si     0.191303     0.770436     0.982103
   si1_1   Si     0.218755     0.779022     0.964748
   si1_1   Si     0.236888     0.751522     0.958151
   si1_1   Si     0.264340     0.760108     0.940795
   si1_1   Si     0.237178     0.800509     0.982843
   si1_1   Si     0.264630     0.809095     0.965488
   si1_1   Si     0.209650     0.793620     0.935894
   si1_1   Si     0.237102     0.802206     0.918539
   si1_1   Si     0.209940     0.842606     0.960586
   si1_1   Si     0.237392     0.851192     0.943231
   si1_1   Si     0.255525     0.823693     0.936634
   si1_1   Si     0.282977     0.832279     0.919279
   si1_1   Si     0.255815     0.872679     0.961326
   si1_1   Si     0.283267     0.881265     0.943971
   si1_1   Si     0.228288     0.865790     0.914377
   si1_1   Si     0.255740     0.874376     0.897022
   si1_1   Si     0.228578     0.914776     0.939070
   si1_1   Si     0.256030     0.923362     0.921714
   si1_1   Si     0.274163     0.895863     0.915117
   si1_1   Si     0.274453     0.944849     0.939810
   si1_1   Si     0.246925     0.937960     0.892860
   si1_1   Si     0.190723     0.672464     0.932718
   si1_1   Si     0.209071     0.695648     0.886509
   si1_1   Si     0.236523     0.704234     0.869154
   si1_1   Si     0.209361     0.744634     0.911202
   si1_1   Si     0.236813     0.753220     0.893846
   si1_1   Si     0.254946     0.725721     0.887249
   si1_1   Si     0.255236     0.774707     0.911942
   si1_1   Si     0.282688     0.783293     0.894586
   si1_1   Si     0.227709     0.767818     0.864992
   si1_1   Si     0.255161     0.776404     0.847637
   si1_1   Si     0.227998     0.816804     0.889685
   si1_1   Si     0.255450     0.825390     0.872329
   si1_1   Si     0.273583     0.797891     0.865732
   si1_1   Si     0.301035     0.806477     0.848377
   si1_1   Si     0.273873     0.846877     0.890425
   si1_1   Si     0.301325     0.855463     0.873069
   si1_1   Si     0.246346     0.839988     0.843475
   si1_1   Si     0.273798     0.848574     0.826120
   si1_1   Si     0.246636     0.888974     0.868168
   si1_1   Si     0.274088     0.897560     0.850813
   si1_1   Si     0.292221     0.870061     0.844216
   si1_1   Si     0.264984     0.912158     0.821959
   si1_1   Si     0.208781     0.646662     0.861817
   si1_1   Si     0.227129     0.669846     0.815607
   si1_1   Si     0.227419     0.718832     0.840300
   si1_1   Si     0.254871     0.727418     0.822944
   si1_1   Si     0.273294     0.748905     0.841040
   si1_1   Si     0.245767     0.742016     0.794091
   si1_1   Si     0.273219     0.750602     0.776735
   si1_1   Si     0.246056     0.791002     0.818783
   si1_1   Si     0.273508     0.799588     0.801428
   si1_1   Si     0.291642     0.772089     0.794831
   si1_1   Si     0.291931     0.821075     0.819523
   si1_1   Si     0.264404     0.814186     0.772574
   si1_1   Si     0.291856     0.822772     0.755218
   si1_1   Si     0.264694     0.863172     0.797266
   si1_1   Si     0.283042     0.886357     0.751057
   si1_1   Si     0.245477     0.693030     0.769398
   si1_1   Si     0.272929     0.701616     0.752043
   si1_1   Si     0.263825     0.716214     0.723189
   si1_1   Si     0.291277     0.724800     0.705834
   si1_1   Si     0.264114     0.765200     0.747881
   si1_1   Si     0.291566     0.773786     0.730526
   si1_1   Si     0.309700     0.746287     0.723929
   si1_1   Si     0.282462     0.788384     0.701672
   si1_1   Si     0.282752     0.837370     0.726365
   si1_1   Si     0.263535     0.667228     0.698497
   si1_1   Si     0.281883     0.690412     0.652287
   si1_1   Si     0.282172     0.739398     0.676980
   si1_1   Si     0.309624     0.747984     0.659624
   si1_1   Si     0.283053     0.830581     0.983583
   si1_1   Si     0.310505     0.839167     0.966228
   si1_1   Si     0.301400     0.853766     0.937374
   si1_1   Si     0.301111     0.804780     0.912682
   si1_1   Si     0.419905     0.194238     0.985412
   si1_1   Si     0.325030     0.190197     0.988711
   si1_1   Si     0.356834     0.182245     0.981375
   si1_1   Si     0.357372     0.154348     0.962667
   si1_1   Si     0.406250     0.141131     0.983779
   si1_1   Si     0.389176     0.146396     0.955331
   si1_1   Si     0.389713     0.118499     0.936622
   si1_1   Si     0.392595     0.088025     0.982146
   si1_1   Si     0.438053     0.133179     0.976443
   si1_1   Si     0.438591     0.105283     0.957734
   si1_1   Si     0.424399     0.080073     0.974810
   si1_1   Si     0.230156     0.186156     0.992011
   si1_1   Si     0.261960     0.178204     0.984675
   si1_1   Si     0.262498     0.150307     0.965966
   si1_1   Si     0.311375     0.137090     0.987078
   si1_1   Si     0.297720     0.083984     0.985446
   si1_1   Si     0.294302     0.142355     0.958630
   si1_1   Si     0.294839     0.114458     0.939921
   si1_1   Si     0.343179     0.129138     0.979742
   si1_1   Si     0.343717     0.101242     0.961034
   si1_1   Si     0.326643     0.106506     0.932585
   si1_1   Si     0.329524     0.076032     0.978110
   si1_1   Si     0.330062     0.048135     0.959401
   si1_1   Si     0.375521     0.093290     0.953698
   si1_1   Si     0.378402     0.062815     0.999222
   si1_1   Si     0.378940     0.034918     0.980513
   si1_1   Si     0.361866     0.040183     0.952065
   si1_1   Si     0.364747     0.009708     0.997589
   si1_1   Si     0.216501     0.133049     0.990378
   si1_1   Si     0.248305     0.125097     0.983042
   si1_1   Si     0.248843     0.097201     0.964333
   si1_1   Si     0.234650     0.071991     0.981409
   si1_1   Si     0.284066     0.030877     0.983813
   si1_1   Si     0.280647     0.089249     0.956997
   si1_1   Si     0.266992     0.036142     0.955364
   si1_1   Si     0.315869     0.022925     0.976477
   si1_1   Si     0.055050     0.380668     0.987454
   si1_1   Si     0.044816     0.410843     0.998097
   si1_1   Si     0.016664     0.419467     0.981923
   si1_1   Si     0.006430     0.449642     0.992567
   si1_1   Si     0.833350     0.687315     0.996301
   si1_1   Si     0.799662     0.728856     0.984096
   si1_1   Si     0.814292     0.780401     0.995865
   si1_1   Si     0.825448     0.750309     0.985938
   si1_1   Si     0.840078     0.801854     0.997707
   si1_1   Si     0.902807     0.814667     0.991465
   si1_1   Si     0.928593     0.836120     0.993307
   si1_1   Si     0.859136     0.708768     0.998143
   si1_1   Si     0.592942     0.275369     0.956849
   si1_1   Si     0.631435     0.339625     0.977056
   si1_1   Si     0.677236     0.384374     0.970908
   si1_1   Si     0.669928     0.403881     0.997263
   si1_1   Si     0.689357     0.447546     0.970332
   si1_1   Si     0.715729     0.448630     0.991115
   si1_1   Si     0.727851     0.511802     0.990539
   si1_1   Si     0.530023     0.073232     0.974828
   si1_1   Si     0.522898     0.104276     0.964149
   si1_1   Si     0.515590     0.123783     0.990505
   si1_1   Si     0.535020     0.167448     0.963573
   si1_1   Si     0.568516     0.137488     0.995035
   si1_1   Si     0.561391     0.168532     0.984356
   si1_1   Si     0.573513     0.231704     0.983780
   si1_1   Si     0.626438     0.245409     0.988311
   si1_1   Si     0.619313     0.276453     0.977632
   si1_1   Si     0.657806     0.340709     0.997839
   si1_1   Si     0.503469     0.060610     0.991080
   si1_1   Si     0.556394     0.074316     0.995611
   si1_1   Si     0.501524     0.197408     0.932112
   si1_1   Si     0.540017     0.261664     0.952319
   si1_1   Si     0.585817     0.306413     0.946170
   si1_1   Si     0.578510     0.325920     0.972526
   si1_1   Si     0.564078     0.376471     0.988202
   si1_1   Si     0.624310     0.370669     0.966377
   si1_1   Si     0.617003     0.390176     0.992733
   si1_1   Si     0.609878     0.421220     0.982054
   si1_1   Si     0.662803     0.434925     0.986584
   si1_1   Si     0.682233     0.478590     0.959653
   si1_1   Si     0.674925     0.498097     0.986008
   si1_1   Si     0.469973     0.090571     0.959619
   si1_1   Si     0.462665     0.110077     0.985974
   si1_1   Si     0.489402     0.134236     0.932687
   si1_1   Si     0.482094     0.153743     0.959043
   si1_1   Si     0.455540     0.141122     0.975295
   si1_1   Si     0.474970     0.184787     0.948364
   si1_1   Si     0.467662     0.204294     0.974719
   si1_1   Si     0.508466     0.154827     0.979826
   si1_1   Si     0.527895     0.198492     0.952894
   si1_1   Si     0.520587     0.217999     0.979250
   si1_1   Si     0.494033     0.205378     0.995502
   si1_1   Si     0.513463     0.249043     0.968571
   si1_1   Si     0.506155     0.268550     0.994926
   si1_1   Si     0.566388     0.262748     0.973101
   si1_1   Si     0.559081     0.282255     0.999457
   si1_1   Si     0.551956     0.313299     0.988778
   si1_1   Si     0.604881     0.327004     0.993308
   si1_1   Si     0.441108     0.191672     0.990972
   si1_1   Si     0.988837     0.983054     0.094804
   si1_1   Si     0.956905     0.983284     0.084370
   si1_1   Si     0.972935     0.965757     0.034921
   si1_1   Si     0.975943     0.911976     0.024529
   si1_1   Si     0.958953     0.935822     0.040999
   si1_1   Si     0.927021     0.936052     0.030566
   si1_1   Si     0.930029     0.882271     0.020174
   si1_1   Si     0.955946     0.989603     0.051390
   si1_1   Si     0.924014     0.989833     0.040957
   si1_1   Si     0.971976     0.972075     0.001941
   si1_1   Si     0.923054     0.996152     0.007977
   si1_1   Si     0.942923     0.953349     0.090448
   si1_1   Si     0.910991     0.953580     0.080015
   si1_1   Si     0.865077     0.923875     0.075660
   si1_1   Si     0.913039     0.906117     0.036644
   si1_1   Si     0.881107     0.906348     0.026210
   si1_1   Si     0.867125     0.876413     0.032288
   si1_1   Si     0.835193     0.876643     0.021855
   si1_1   Si     0.894001     0.977426     0.096485
   si1_1   Si     0.862069     0.977656     0.086052
   si1_1   Si     0.910031     0.959899     0.047035
   si1_1   Si     0.878100     0.960129     0.036602
   si1_1   Si     0.861110     0.983975     0.053071
   si1_1   Si     0.829178     0.984205     0.042638
   si1_1   Si     0.864117     0.930194     0.042680
   si1_1   Si     0.832185     0.930424     0.032247
   si1_1   Si     0.877140     0.966448     0.003622
   si1_1   Si     0.828218     0.990524     0.009658
   si1_1   Si     0.789279     0.846939     0.017500
   si1_1   Si     0.877971     0.994954     0.145934
   si1_1   Si     0.846039     0.995184     0.135501
   si1_1   Si     0.800125     0.965479     0.131146
   si1_1   Si     0.848087     0.947722     0.092129
   si1_1   Si     0.816155     0.947952     0.081696
   si1_1   Si     0.799165     0.971798     0.098166
   si1_1   Si     0.767234     0.972028     0.087733
   si1_1   Si     0.802173     0.918017     0.087774
   si1_1   Si     0.770241     0.918247     0.077341
   si1_1   Si     0.815196     0.954271     0.048716
   si1_1   Si     0.783264     0.954501     0.038283
   si1_1   Si     0.818203     0.900489     0.038325
   si1_1   Si     0.786271     0.900720     0.027892
   si1_1   Si     0.769281     0.924566     0.044361
   si1_1   Si     0.737350     0.924796     0.033928
   si1_1   Si     0.772289     0.870785     0.033969
   si1_1   Si     0.740357     0.871015     0.023536
   si1_1   Si     0.766274     0.978347     0.054752
   si1_1   Si     0.734342     0.978577     0.044319
   si1_1   Si     0.782304     0.960820     0.005303
   si1_1   Si     0.733383     0.984896     0.011339
   si1_1   Si     0.701451     0.985126     0.000906
   si1_1   Si     0.736390     0.931115     0.000948
   si1_1   Si     0.783135     0.989326     0.147615
   si1_1   Si     0.751203     0.989556     0.137182
   si1_1   Si     0.754211     0.935775     0.126791
   si1_1   Si     0.753251     0.942094     0.093810
   si1_1   Si     0.721319     0.942324     0.083377
   si1_1   Si     0.724327     0.888543     0.072986
   si1_1   Si     0.707337     0.912389     0.089455
   si1_1   Si     0.675405     0.912619     0.079022
   si1_1   Si     0.678413     0.858838     0.068631
   si1_1   Si     0.723367     0.894861     0.040006
   si1_1   Si     0.691435     0.895092     0.029573
   si1_1   Si     0.726375     0.841080     0.029614
   si1_1   Si     0.750244     0.995875     0.104202
   si1_1   Si     0.718312     0.996105     0.093769
   si1_1   Si     0.704330     0.966170     0.099847
   si1_1   Si     0.672398     0.966400     0.089414
   si1_1   Si     0.720360     0.948643     0.050397
   si1_1   Si     0.688428     0.948873     0.039964
   si1_1   Si     0.671438     0.972719     0.056433
   si1_1   Si     0.639507     0.972949     0.046000
   si1_1   Si     0.674446     0.918938     0.046042
   si1_1   Si     0.642514     0.919168     0.035609
   si1_1   Si     0.687469     0.955192     0.006984
   si1_1   Si     0.638547     0.979268     0.013020
   si1_1   Si     0.606615     0.979498     0.002587
   si1_1   Si     0.661423     0.882684     0.085100
   si1_1   Si     0.625524     0.943015     0.052078
   si1_1   Si     0.486069     0.998175     0.279669
   si1_1   Si     0.391195     0.994134     0.282968
   si1_1   Si     0.374121     0.999398     0.254520
   si1_1   Si     0.420656     0.988759     0.211400
   si1_1   Si     0.401238     0.996602     0.118719
   si1_1   Si     0.403582     0.994024     0.182951
   si1_1   Si     0.404119     0.966127     0.164243
   si1_1   Si     0.450116     0.983385     0.139831
   si1_1   Si     0.452459     0.980807     0.204064
   si1_1   Si     0.430699     0.991227     0.047150
   si1_1   Si     0.433042     0.988650     0.111382
   si1_1   Si     0.433580     0.960753     0.092674
   si1_1   Si     0.479576     0.978010     0.068262
   si1_1   Si     0.481920     0.975433     0.132495
   si1_1   Si     0.465384     0.952801     0.085338
   si1_1   Si     0.462502     0.983275     0.039814
   si1_1   Si     0.296321     0.990093     0.286268
   si1_1   Si     0.279247     0.995357     0.257819
   si1_1   Si     0.276904     0.997935     0.193587
   si1_1   Si     0.325781     0.984718     0.214699
   si1_1   Si     0.308708     0.989983     0.186251
   si1_1   Si     0.357585     0.976766     0.207363
   si1_1   Si     0.306364     0.992560     0.122018
   si1_1   Si     0.355242     0.979344     0.143130
   si1_1   Si     0.338168     0.984609     0.114682
   si1_1   Si     0.338706     0.956712     0.095973
   si1_1   Si     0.387046     0.971392     0.135794
   si1_1   Si     0.335824     0.987186     0.050449
   si1_1   Si     0.384702     0.973969     0.071562
   si1_1   Si     0.367628     0.979234     0.043113
   si1_1   Si     0.368166     0.951337     0.024405
   si1_1   Si     0.370509     0.948760     0.088637
   si1_1   Si     0.416506     0.966017     0.064226
   si1_1   Si     0.413625     0.996492     0.018701
   si1_1   Si     0.152569     0.999268     0.268455
   si1_1   Si     0.154913     0.996691     0.332688
   si1_1   Si     0.201447     0.986052     0.289567
   si1_1   Si     0.182030     0.993894     0.196886
   si1_1   Si     0.184373     0.991316     0.261119
   si1_1   Si     0.230907     0.980677     0.217998
   si1_1   Si     0.211490     0.988519     0.125317
   si1_1   Si     0.213834     0.985942     0.189550
   si1_1   Si     0.260368     0.975303     0.146430
   si1_1   Si     0.262711     0.972725     0.210662
   si1_1   Si     0.240950     0.983145     0.053749
   si1_1   Si     0.243294     0.980568     0.117981
   si1_1   Si     0.243831     0.952671     0.099273
   si1_1   Si     0.289290     0.997825     0.093570
   si1_1   Si     0.289828     0.969928     0.074861
   si1_1   Si     0.292172     0.967351     0.139094
   si1_1   Si     0.272754     0.975193     0.046413
   si1_1   Si     0.273292     0.947296     0.027704
   si1_1   Si     0.318751     0.992451     0.022001
   si1_1   Si     0.319288     0.964554     0.003292
   si1_1   Si     0.321632     0.961976     0.067525
   si1_1   Si     0.305096     0.939344     0.020368
   si1_1   Si     0.164956     0.999159     0.168438
   si1_1   Si     0.165493     0.971262     0.149729
   si1_1   Si     0.197297     0.963310     0.142393
   si1_1   Si     0.192073     0.996362     0.032636
   si1_1   Si     0.194416     0.993784     0.096869
   si1_1   Si     0.194954     0.965887     0.078160
   si1_1   Si     0.177880     0.971152     0.049712
   si1_1   Si     0.226758     0.957935     0.070824
   si1_1   Si     0.223876     0.988410     0.025300
   si1_1   Si     0.224414     0.960513     0.006592
   si1_1   Si     0.697503     0.923431     0.132138
   si1_1   Si     0.716566     0.944022     0.179276
   si1_1   Si     0.735996     0.987687     0.152345
   si1_1   Si     0.762367     0.988771     0.173127
   si1_1   Si     0.735630     0.964613     0.226414
   si1_1   Si     0.762001     0.965697     0.247197
   si1_1   Si     0.754694     0.985204     0.273553
   si1_1   Si     0.807619     0.998909     0.278083
   si1_1   Si     0.754329     0.962129     0.347622
   si1_1   Si     0.781065     0.986288     0.294335
   si1_1   Si     0.773392     0.982720     0.394761
   si1_1   Si     0.611081     0.939686     0.096145
   si1_1   Si     0.630511     0.983351     0.069214
   si1_1   Si     0.664007     0.953391     0.100676
   si1_1   Si     0.656882     0.984435     0.089997
   si1_1   Si     0.591652     0.896021     0.123076
   si1_1   Si     0.644577     0.909726     0.127607
   si1_1   Si     0.618023     0.897105     0.143859
   si1_1   Si     0.610716     0.916612     0.170215
   si1_1   Si     0.637453     0.940770     0.116928
   si1_1   Si     0.630145     0.960277     0.143284
   si1_1   Si     0.670949     0.910810     0.148390
   si1_1   Si     0.663641     0.930317     0.174745
   si1_1   Si     0.690378     0.954475     0.121458
   si1_1   Si     0.683070     0.973982     0.147814
   si1_1   Si     0.656516     0.961361     0.164066
   si1_1   Si     0.649209     0.980868     0.190422
   si1_1   Si     0.709442     0.975066     0.168597
   si1_1   Si     0.702134     0.994573     0.194952
   si1_1   Si     0.644212     0.886652     0.201677
   si1_1   Si     0.637087     0.917696     0.190998
   si1_1   Si     0.629780     0.937203     0.217353
   si1_1   Si     0.663276     0.907243     0.248815
   si1_1   Si     0.690012     0.931401     0.195528
   si1_1   Si     0.682705     0.950908     0.221884
   si1_1   Si     0.656151     0.938287     0.238136
   si1_1   Si     0.648843     0.957794     0.264492
   si1_1   Si     0.675580     0.981952     0.211205
   si1_1   Si     0.709076     0.951992     0.242667
   si1_1   Si     0.701769     0.971499     0.269022
   si1_1   Si     0.728505     0.995657     0.215735
   si1_1   Si     0.636722     0.894621     0.265067
   si1_1   Si     0.629414     0.914128     0.291423
   si1_1   Si     0.682339     0.927833     0.295953
   si1_1   Si     0.655786     0.915212     0.312206
   si1_1   Si     0.648478     0.934719     0.338561
   si1_1   Si     0.675215     0.958877     0.285274
   si1_1   Si     0.667907     0.978384     0.311630
   si1_1   Si     0.708711     0.928917     0.316736
   si1_1   Si     0.701403     0.948424     0.343092
   si1_1   Si     0.728140     0.972583     0.289805
   si1_1   Si     0.720833     0.992089     0.316161
   si1_1   Si     0.694279     0.979468     0.332413
   si1_1   Si     0.686971     0.998975     0.358768
   si1_1   Si     0.747204     0.993173     0.336943
   si1_1   Si     0.674849     0.935803     0.359344
   si1_1   Si     0.667542     0.955310     0.385700
   si1_1   Si     0.727775     0.949508     0.363875
   si1_1   Si     0.720467     0.969015     0.390230
   si1_1   Si     0.693913     0.956394     0.406482
   si1_1   Si     0.686606     0.975901     0.432838
   si1_1   Si     0.746838     0.970099     0.411013
   si1_1   Si     0.739531     0.989606     0.437369
   si1_1   Si     0.544089     0.999606     0.033221
   si1_1   Si     0.524660     0.955941     0.060153
   si1_1   Si     0.558156     0.925981     0.091615
   si1_1   Si     0.577585     0.969646     0.064683
   si1_1   Si     0.551031     0.957025     0.080935
   si1_1   Si     0.543724     0.976532     0.107291
   si1_1   Si     0.603957     0.970730     0.085466
   si1_1   Si     0.596649     0.990237     0.111822
   si1_1   Si     0.584527     0.927065     0.112397
   si1_1   Si     0.577220     0.946572     0.138753
   si1_1   Si     0.550666     0.933951     0.155005
   si1_1   Si     0.543358     0.953458     0.181361
   si1_1   Si     0.570095     0.977616     0.128074
   si1_1   Si     0.562788     0.997123     0.154429
   si1_1   Si     0.603591     0.947656     0.159536
   si1_1   Si     0.596284     0.967163     0.185891
   si1_1   Si     0.623020     0.991321     0.132604
   si1_1   Si     0.589159     0.998207     0.175212
   si1_1   Si     0.569730     0.954542     0.202144
   si1_1   Si     0.562422     0.974049     0.228499
   si1_1   Si     0.603226     0.924582     0.233605
   si1_1   Si     0.595918     0.944088     0.259961
   si1_1   Si     0.622655     0.968247     0.206674
   si1_1   Si     0.615347     0.987754     0.233030
   si1_1   Si     0.588793     0.975132     0.249282
   si1_1   Si     0.581486     0.994639     0.275638
   si1_1   Si     0.641719     0.988838     0.253812
   si1_1   Si     0.622289     0.945172     0.280744
   si1_1   Si     0.614982     0.964679     0.307099
   si1_1   Si     0.588428     0.952058     0.323352
   si1_1   Si     0.581121     0.971565     0.349707
   si1_1   Si     0.607857     0.995723     0.296420
   si1_1   Si     0.641353     0.965763     0.327882
   si1_1   Si     0.634046     0.985270     0.354238
   si1_1   Si     0.614617     0.941605     0.381169
   si1_1   Si     0.607492     0.972649     0.370490
   si1_1   Si     0.600184     0.992156     0.396846
   si1_1   Si     0.660417     0.986354     0.375021
   si1_1   Si     0.626556     0.993240     0.417628
   si1_1   Si     0.498106     0.943320     0.076405
   si1_1   Si     0.490799     0.962827     0.102761
   si1_1   Si     0.517535     0.986985     0.049474
   si1_1   Si     0.483674     0.993871     0.092081
   si1_1   Si     0.517170     0.963911     0.123543
   si1_1   Si     0.509862     0.983418     0.149899
   si1_1   Si     0.536234     0.984502     0.170682
   si1_1   Si     0.502372     0.991388     0.213289
   si1_1   Si     0.535868     0.961427     0.244751
   si1_1   Si     0.528561     0.980934     0.271107
   si1_1   Si     0.554932     0.982018     0.291890
   si1_1   Si     0.573630     0.979535     0.413098
   si1_1   Si     0.566323     0.999042     0.439453
   si1_1   Si     0.022400     0.983089     0.425087
   si1_1   Si     0.010753     0.963027     0.449385
   si1_1   Si     0.031784     0.963780     0.475570
   si1_1   Si     0.017811     0.912275     0.488275
   si1_1   Si     0.020137     0.943719     0.499869
   si1_1   Si     0.041169     0.944472     0.526053
   si1_1   Si     0.048164     0.901646     0.478567
   si1_1   Si     0.069196     0.902399     0.504751
   si1_1   Si     0.006164     0.892214     0.512573
   si1_1   Si     0.027196     0.892967     0.538758
   si1_1   Si     0.057549     0.882338     0.529050
   si1_1   Si     0.078581     0.883091     0.555235
   si1_1   Si     0.013142     0.986545     0.547355
   si1_1   Si     0.001494     0.966484     0.571654
   si1_1   Si     0.022526     0.967237     0.597838
   si1_1   Si     0.029521     0.924411     0.550352
   si1_1   Si     0.050553     0.925164     0.576536
   si1_1   Si     0.008553     0.915731     0.610543
   si1_1   Si     0.015548     0.872905     0.563056
   si1_1   Si     0.036580     0.873658     0.589241
   si1_1   Si     0.038906     0.905102     0.600835
   si1_1   Si     0.059938     0.905855     0.627020
   si1_1   Si     0.066933     0.863029     0.579533
   si1_1   Si     0.087965     0.863782     0.605718
   si1_1   Si     0.003883     0.990001     0.669623
   si1_1   Si     0.010879     0.947175     0.622137
   si1_1   Si     0.031910     0.947928     0.648322
   si1_1   Si     0.017937     0.896423     0.661026
   si1_1   Si     0.020263     0.927867     0.672620
   si1_1   Si     0.041295     0.928620     0.698805
   si1_1   Si     0.048290     0.885794     0.651318
   si1_1   Si     0.069322     0.886547     0.677503
   si1_1   Si     0.013267     0.970693     0.720107
   si1_1   Si     0.001620     0.950631     0.744405
   si1_1   Si     0.022652     0.951384     0.770590
   si1_1   Si     0.029647     0.908558     0.723103
   si1_1   Si     0.050679     0.909311     0.749288
   si1_1   Si     0.011004     0.931323     0.794888
   si1_1   Si     0.032036     0.932076     0.821073
   si1_1   Si     0.064401     0.992521     0.391080
   si1_1   Si     0.052753     0.972460     0.415379
   si1_1   Si     0.073785     0.973213     0.441564
   si1_1   Si     0.125170     0.963336     0.458041
   si1_1   Si     0.034110     0.995224     0.487164
   si1_1   Si     0.055142     0.995977     0.513349
   si1_1   Si     0.062138     0.953151     0.465862
   si1_1   Si     0.083169     0.953904     0.492047
   si1_1   Si     0.085495     0.985348     0.503641
   si1_1   Si     0.106527     0.986101     0.529826
   si1_1   Si     0.113523     0.943275     0.482339
   si1_1   Si     0.134554     0.944028     0.508524
   si1_1   Si     0.071522     0.933843     0.516345
   si1_1   Si     0.092554     0.934596     0.542530
   si1_1   Si     0.122907     0.923966     0.532822
   si1_1   Si     0.143939     0.924719     0.559007
   si1_1   Si     0.108934     0.872461     0.545527
   si1_1   Si     0.129965     0.873214     0.571712
   si1_1   Si     0.043495     0.975916     0.537647
   si1_1   Si     0.064526     0.976669     0.563832
   si1_1   Si     0.094880     0.966039     0.554124
   si1_1   Si     0.115911     0.966792     0.580309
   si1_1   Si     0.052879     0.956607     0.588131
   si1_1   Si     0.073911     0.957360     0.614315
   si1_1   Si     0.080906     0.914534     0.566829
   si1_1   Si     0.101938     0.915287     0.593013
   si1_1   Si     0.104264     0.946731     0.604607
   si1_1   Si     0.125296     0.947484     0.630792
   si1_1   Si     0.132291     0.904658     0.583306
   si1_1   Si     0.153323     0.905411     0.609490
   si1_1   Si     0.090291     0.895226     0.617312
   si1_1   Si     0.111323     0.895979     0.643497
   si1_1   Si     0.141676     0.885350     0.633789
   si1_1   Si     0.162707     0.886103     0.659974
   si1_1   Si     0.024852     0.998680     0.609432
   si1_1   Si     0.045883     0.999433     0.635617
   si1_1   Si     0.076237     0.988804     0.625909
   si1_1   Si     0.097268     0.989557     0.652094
   si1_1   Si     0.034236     0.979372     0.659916
   si1_1   Si     0.055268     0.980125     0.686100
   si1_1   Si     0.062263     0.937299     0.638614
   si1_1   Si     0.083295     0.938052     0.664798
   si1_1   Si     0.085621     0.969496     0.676392
   si1_1   Si     0.106653     0.970249     0.702577
   si1_1   Si     0.113648     0.927423     0.655091
   si1_1   Si     0.134680     0.928176     0.681275
   si1_1   Si     0.071648     0.917990     0.689097
   si1_1   Si     0.092680     0.918743     0.715282
   si1_1   Si     0.123033     0.908114     0.705574
   si1_1   Si     0.144064     0.908867     0.731759
   si1_1   Si     0.043621     0.960063     0.710399
   si1_1   Si     0.064652     0.960816     0.736583
   si1_1   Si     0.066978     0.992260     0.748177
   si1_1   Si     0.088010     0.993013     0.774362
   si1_1   Si     0.095005     0.950187     0.726876
   si1_1   Si     0.116037     0.950940     0.753060
   si1_1   Si     0.053005     0.940755     0.760882
   si1_1   Si     0.074037     0.941508     0.787067
   si1_1   Si     0.081032     0.898682     0.739580
   si1_1   Si     0.104390     0.930879     0.777359
   si1_1   Si     0.125422     0.931632     0.803544
   si1_1   Si     0.024978     0.982828     0.782184
   si1_1   Si     0.046009     0.983581     0.808369
   si1_1   Si     0.076363     0.972952     0.798661
   si1_1   Si     0.097394     0.973705     0.824845
   si1_1   Si     0.034362     0.963520     0.832667
   si1_1   Si     0.062389     0.921447     0.811365
   si1_1   Si     0.083421     0.922200     0.837550
   si1_1   Si     0.085747     0.953643     0.849144
   si1_1   Si     0.106779     0.954396     0.875329
   si1_1   Si     0.127496     0.994780     0.469635
   si1_1   Si     0.148527     0.995533     0.495819
   si1_1   Si     0.136880     0.975472     0.520118
   si1_1   Si     0.157912     0.976225     0.546303
   si1_1   Si     0.188265     0.965595     0.536595
   si1_1   Si     0.209297     0.966348     0.562779
   si1_1   Si     0.118237     0.998236     0.591903
   si1_1   Si     0.139269     0.998989     0.618088
   si1_1   Si     0.146265     0.956163     0.570601
   si1_1   Si     0.167296     0.956916     0.596786
   si1_1   Si     0.169622     0.988360     0.608380
   si1_1   Si     0.190654     0.989113     0.634565
   si1_1   Si     0.197649     0.946287     0.587078
   si1_1   Si     0.218681     0.947040     0.613263
   si1_1   Si     0.155649     0.936855     0.621084
   si1_1   Si     0.176681     0.937608     0.647269
   si1_1   Si     0.183676     0.894782     0.599782
   si1_1   Si     0.204708     0.895535     0.625967
   si1_1   Si     0.207034     0.926978     0.637561
   si1_1   Si     0.228066     0.927731     0.663746
   si1_1   Si     0.127622     0.978928     0.642386
   si1_1   Si     0.148653     0.979681     0.668571
   si1_1   Si     0.179006     0.969051     0.658863
   si1_1   Si     0.200038     0.969804     0.685048
   si1_1   Si     0.137006     0.959619     0.692869
   si1_1   Si     0.158038     0.960372     0.719054
   si1_1   Si     0.165033     0.917546     0.671568
   si1_1   Si     0.186065     0.918299     0.697752
   si1_1   Si     0.188391     0.949743     0.709346
   si1_1   Si     0.209423     0.950496     0.735531
   si1_1   Si     0.216418     0.907670     0.688044
   si1_1   Si     0.237450     0.908423     0.714229
   si1_1   Si     0.174418     0.898238     0.722051
   si1_1   Si     0.160364     0.991816     0.730648
   si1_1   Si     0.181395     0.992569     0.756833
   si1_1   Si     0.118363     0.982384     0.764654
   si1_1   Si     0.139395     0.983137     0.790839
   si1_1   Si     0.146390     0.940311     0.743353
   si1_1   Si     0.167422     0.941064     0.769537
   si1_1   Si     0.169748     0.972508     0.781131
   si1_1   Si     0.190780     0.973261     0.807316
   si1_1   Si     0.197775     0.930435     0.759829
   si1_1   Si     0.218807     0.931188     0.786014
   si1_1   Si     0.155775     0.921002     0.793836
   si1_1   Si     0.127747     0.963075     0.815138
   si1_1   Si     0.148779     0.963828     0.841322
   si1_1   Si     0.151105     0.995272     0.852916
   si1_1   Si     0.172137     0.996025     0.879101
   si1_1   Si     0.179132     0.953199     0.831615
   si1_1   Si     0.200164     0.953952     0.857799
   si1_1   Si     0.137132     0.943767     0.865621
   si1_1   Si     0.158164     0.944520     0.891806
   si1_1   Si     0.160489     0.975964     0.903400
   si1_1   Si     0.211623     0.997792     0.574373
   si1_1   Si     0.232654     0.998545     0.600558
   si1_1   Si     0.263008     0.987916     0.590850
   si1_1   Si     0.284039     0.988669     0.617035
   si1_1   Si     0.221007     0.978484     0.624857
   si1_1   Si     0.242039     0.979237     0.651041
   si1_1   Si     0.272392     0.968607     0.641334
   si1_1   Si     0.293424     0.969360     0.667518
   si1_1   Si     0.258419     0.917102     0.654038
   si1_1   Si     0.279450     0.917855     0.680223
   si1_1   Si     0.230391     0.959175     0.675340
   si1_1   Si     0.251423     0.959928     0.701525
   si1_1   Si     0.253749     0.991372     0.713119
   si1_1   Si     0.274781     0.992125     0.739303
   si1_1   Si     0.281776     0.949299     0.691817
   si1_1   Si     0.239776     0.939867     0.725823
   si1_1   Si     0.260808     0.940620     0.752008
   si1_1   Si     0.211748     0.981940     0.747125
   si1_1   Si     0.232780     0.982693     0.773310
   si1_1   Si     0.263133     0.972063     0.763602
   si1_1   Si     0.284165     0.972816     0.789787
   si1_1   Si     0.221133     0.962631     0.797608
   si1_1   Si     0.242165     0.963384     0.823793
   si1_1   Si     0.249160     0.920558     0.776306
   si1_1   Si     0.272518     0.952755     0.814085
   si1_1   Si     0.244490     0.994828     0.835387
   si1_1   Si     0.265522     0.995581     0.861572
   si1_1   Si     0.202490     0.985396     0.869393
   si1_1   Si     0.223522     0.986149     0.895578
   si1_1   Si     0.230517     0.943323     0.848091
   si1_1   Si     0.251549     0.944076     0.874276
   si1_1   Si     0.253875     0.975520     0.885870
   si1_1   Si     0.274907     0.976273     0.912055
   si1_1   Si     0.211874     0.966087     0.919876
   si1_1   Si     0.232906     0.966840     0.946061
   si1_1   Si     0.305134     0.981496     0.729596
   si1_1   Si     0.295875     0.984952     0.851864
   si1_1   Si     0.985127     0.973504     0.853551
   si1_1   Si     0.988135     0.919723     0.843159
   si1_1   Si     0.955243     0.926272     0.799746
   si1_1   Si     0.984168     0.979823     0.820571
   si1_1   Si     0.952236     0.980053     0.810137
   si1_1   Si     0.919344     0.986602     0.766724
   si1_1   Si     0.988966     0.948229     0.985471
   si1_1   Si     0.991973     0.894448     0.975080
   si1_1   Si     0.991013     0.900767     0.942100
   si1_1   Si     0.959082     0.900997     0.931667
   si1_1   Si     0.975112     0.883469     0.882217
   si1_1   Si     0.988006     0.954548     0.952491
   si1_1   Si     0.956074     0.954778     0.942058
   si1_1   Si     0.969097     0.991032     0.903000
   si1_1   Si     0.972104     0.937251     0.892609
   si1_1   Si     0.955115     0.961097     0.909078
   si1_1   Si     0.923183     0.961327     0.898645
   si1_1   Si     0.958122     0.907316     0.898686
   si1_1   Si     0.926190     0.907546     0.888253
   si1_1   Si     0.971145     0.943569     0.859629
   si1_1   Si     0.939213     0.943800     0.849195
   si1_1   Si     0.942220     0.890019     0.838804
   si1_1   Si     0.925231     0.913865     0.855273
   si1_1   Si     0.893299     0.914095     0.844840
   si1_1   Si     0.941261     0.896337     0.805824
   si1_1   Si     0.909329     0.896568     0.795391
   si1_1   Si     0.863415     0.866863     0.791035
   si1_1   Si     0.968137     0.997351     0.870020
   si1_1   Si     0.936206     0.997581     0.859587
   si1_1   Si     0.922223     0.967646     0.865665
   si1_1   Si     0.890291     0.967876     0.855232
   si1_1   Si     0.938253     0.950118     0.816215
   si1_1   Si     0.906322     0.950349     0.805782
   si1_1   Si     0.889332     0.974195     0.822252
   si1_1   Si     0.857400     0.974425     0.811819
   si1_1   Si     0.892339     0.920414     0.811860
   si1_1   Si     0.860407     0.920644     0.801427
   si1_1   Si     0.905362     0.956667     0.772802
   si1_1   Si     0.873430     0.956898     0.762369
   si1_1   Si     0.876438     0.903117     0.751977
   si1_1   Si     0.859448     0.926963     0.768447
   si1_1   Si     0.827516     0.927193     0.758014
   si1_1   Si     0.856440     0.980744     0.778838
   si1_1   Si     0.824509     0.980974     0.768405
   si1_1   Si     0.840539     0.963447     0.718956
   si1_1   Si     0.823549     0.987293     0.735425
   si1_1   Si     0.791617     0.987523     0.724992
   si1_1   Si     0.826557     0.933512     0.725034
   si1_1   Si     0.790658     0.993842     0.692012
   si1_1   Si     0.974983     0.918294     0.991549
   si1_1   Si     0.943051     0.918525     0.981116
   si1_1   Si     0.977991     0.864513     0.981158
   si1_1   Si     0.946059     0.864743     0.970725
   si1_1   Si     0.929069     0.888590     0.987194
   si1_1   Si     0.897137     0.888820     0.976761
   si1_1   Si     0.900145     0.835039     0.966369
   si1_1   Si     0.945099     0.871062     0.937744
   si1_1   Si     0.913167     0.871293     0.927311
   si1_1   Si     0.899185     0.841358     0.933389
   si1_1   Si     0.867253     0.841588     0.922956
   si1_1   Si     0.940044     0.972306     0.991508
   si1_1   Si     0.891122     0.996382     0.997544
   si1_1   Si     0.926062     0.942371     0.997586
   si1_1   Si     0.894130     0.942601     0.987152
   si1_1   Si     0.939084     0.978625     0.958528
   si1_1   Si     0.907153     0.978855     0.948095
   si1_1   Si     0.942092     0.924843     0.948136
   si1_1   Si     0.910160     0.925074     0.937703
   si1_1   Si     0.893170     0.948920     0.954172
   si1_1   Si     0.861238     0.949150     0.943739
   si1_1   Si     0.896178     0.895139     0.943781
   si1_1   Si     0.864246     0.895369     0.933348
   si1_1   Si     0.909200     0.931392     0.904723
   si1_1   Si     0.877269     0.931623     0.894290
   si1_1   Si     0.912208     0.877611     0.894331
   si1_1   Si     0.880276     0.877842     0.883898
   si1_1   Si     0.863286     0.901688     0.900368
   si1_1   Si     0.831354     0.901918     0.889934
   si1_1   Si     0.866294     0.847907     0.889976
   si1_1   Si     0.834362     0.848137     0.879543
   si1_1   Si     0.879316     0.884160     0.850918
   si1_1   Si     0.847385     0.884391     0.840485
   si1_1   Si     0.833402     0.854456     0.846563
   si1_1   Si     0.906193     0.985174     0.915114
   si1_1   Si     0.874261     0.985404     0.904681
   si1_1   Si     0.860279     0.955469     0.910759
   si1_1   Si     0.828347     0.955699     0.900326
   si1_1   Si     0.873302     0.991723     0.871701
   si1_1   Si     0.841370     0.991953     0.861268
   si1_1   Si     0.876309     0.937941     0.861310
   si1_1   Si     0.844377     0.938172     0.850877
   si1_1   Si     0.827387     0.962018     0.867346
   si1_1   Si     0.795456     0.962248     0.856913
   si1_1   Si     0.830395     0.908237     0.856954
   si1_1   Si     0.798463     0.908467     0.846521
   si1_1   Si     0.843418     0.944490     0.817896
   si1_1   Si     0.811486     0.944721     0.807463
   si1_1   Si     0.846425     0.890709     0.807505
   si1_1   Si     0.814493     0.890940     0.797072
   si1_1   Si     0.797504     0.914786     0.813541
   si1_1   Si     0.840410     0.998272     0.828288
   si1_1   Si     0.808478     0.998502     0.817855
   si1_1   Si     0.794496     0.968567     0.823933
   si1_1   Si     0.762564     0.968797     0.813500
   si1_1   Si     0.810526     0.951039     0.774483
   si1_1   Si     0.778595     0.951270     0.764050
   si1_1   Si     0.761605     0.975116     0.780519
   si1_1   Si     0.883155     0.858885     0.982839
   si1_1   Si     0.851223     0.859116     0.972406
   si1_1   Si     0.837241     0.829181     0.978483
   si1_1   Si     0.805309     0.829411     0.968050
   si1_1   Si     0.821339     0.811883     0.918601
   si1_1   Si     0.845208     0.966678     0.993189
   si1_1   Si     0.880147     0.912666     0.993230
   si1_1   Si     0.848216     0.912897     0.982797
   si1_1   Si     0.831226     0.936743     0.999267
   si1_1   Si     0.799294     0.936973     0.988834
   si1_1   Si     0.834233     0.882962     0.988875
   si1_1   Si     0.802301     0.883192     0.978442
   si1_1   Si     0.847256     0.919215     0.949817
   si1_1   Si     0.815324     0.919446     0.939384
   si1_1   Si     0.850263     0.865434     0.939426
   si1_1   Si     0.818332     0.865665     0.928992
   si1_1   Si     0.801342     0.889511     0.945462
   si1_1   Si     0.769410     0.889741     0.935029
   si1_1   Si     0.804349     0.835730     0.935070
   si1_1   Si     0.817372     0.871983     0.896012
   si1_1   Si     0.785440     0.872214     0.885579
   si1_1   Si     0.796287     0.990754     0.999225
   si1_1   Si     0.844249     0.972997     0.960209
   si1_1   Si     0.812317     0.973227     0.949776
   si1_1   Si     0.795327     0.997073     0.966245
   si1_1   Si     0.763395     0.997303     0.955812
   si1_1   Si     0.798334     0.943292     0.955853
   si1_1   Si     0.766403     0.943522     0.945420
   si1_1   Si     0.811357     0.979546     0.916795
   si1_1   Si     0.779425     0.979776     0.906362
   si1_1   Si     0.814365     0.925764     0.906404
   si1_1   Si     0.782433     0.925995     0.895971
   si1_1   Si     0.765443     0.949841     0.912440
   si1_1   Si     0.733511     0.950071     0.902007
   si1_1   Si     0.768450     0.896060     0.902049
   si1_1   Si     0.781473     0.932313     0.862991
   si1_1   Si     0.749542     0.932544     0.852558
   si1_1   Si     0.778466     0.986095     0.873382
   si1_1   Si     0.746534     0.986325     0.862949
   si1_1   Si     0.732552     0.956390     0.869027
   si1_1   Si     0.745575     0.992644     0.829969
   si1_1   Si     0.713643     0.992874     0.819536
   si1_1   Si     0.712683     0.999193     0.786556
   si1_1   Si     0.785312     0.907038     0.994911
   si1_1   Si     0.753380     0.907269     0.984478
   si1_1   Si     0.788319     0.853257     0.984520
   si1_1   Si     0.756387     0.853488     0.974087
   si1_1   Si     0.739397     0.877334     0.990556
   si1_1   Si     0.755428     0.859806     0.941107
   si1_1   Si     0.750372     0.961050     0.994870
   si1_1   Si     0.704458     0.931345     0.990515
   si1_1   Si     0.749413     0.967369     0.961890
   si1_1   Si     0.717481     0.967599     0.951457
   si1_1   Si     0.752420     0.913587     0.951498
   si1_1   Si     0.720489     0.913818     0.941065
   si1_1   Si     0.703499     0.937664     0.957534
   si1_1   Si     0.671567     0.937894     0.947101
   si1_1   Si     0.719529     0.920136     0.908085
   si1_1   Si     0.700491     0.991445     0.967926
   si1_1   Si     0.668560     0.991675     0.957493
   si1_1   Si     0.716522     0.973918     0.918476
   si1_1   Si     0.684590     0.974148     0.908043
   si1_1   Si     0.667600     0.997994     0.924513
   si1_1   Si     0.635668     0.998224     0.914080
   si1_1   Si     0.683630     0.980467     0.875063
   si1_1   Si     0.655537     0.955422     0.996551
   si1_1   Si     0.690476     0.901410     0.996592
   si1_1   Si     0.654577     0.961741     0.963571
   si1_1   Si     0.270411     0.977771     0.982180
   si1_1   Si     0.316407     0.995028     0.957768
   si1_1   Si     0.302214     0.969819     0.974844
   si1_1   Si     0.351092     0.956602     0.995956
   si1_1   Si     0.256218     0.952561     0.999256
   si1_1   Si     0.778718     0.548766     0.000135
   si1_1   Si     0.833407     0.515255     0.005036
   si1_1   Si     0.879282     0.545327     0.005776
   si1_1   Si     0.824593     0.578839     0.000875
   si1_1   Si     0.870468     0.608912     0.001615
   si1_1   Si     0.925157     0.575400     0.006517
   si1_1   Si     0.971032     0.605473     0.007257
   si1_1   Si     0.916343     0.638985     0.002355
   si1_1   Si     0.962218     0.669057     0.003095
   si1_1   Si     0.943290     0.547901     0.999920
   si1_1   Si     0.998269     0.563376     0.029513
   si1_1   Si     0.997980     0.514390     0.004821
   si1_1   Si     0.989165     0.577974     0.000660
   si1_1   Si     0.996773     0.139488     0.332421
   si1_1   Si     0.980551     0.168447     0.376098
   si1_1   Si     0.928491     0.154304     0.366139
   si1_1   Si     0.989088     0.087763     0.294959
   si1_1   Si     0.960936     0.096387     0.278785
   si1_1   Si     0.972866     0.116721     0.338636
   si1_1   Si     0.944713     0.125346     0.322462
   si1_1   Si     0.995070     0.404308     0.569622
   si1_1   Si     0.997619     0.322407     0.521516
   si1_1   Si     0.981396     0.351366     0.565193
   si1_1   Si     0.987385     0.352582     0.532160
   si1_1   Si     0.959233     0.361206     0.515986
   si1_1   Si     0.991677     0.303289     0.428632
   si1_1   Si     0.975455     0.332248     0.472309
   si1_1   Si     0.989933     0.270682     0.484055
   si1_1   Si     0.961781     0.279306     0.467881
   si1_1   Si     0.945559     0.308264     0.511558
   si1_1   Si     0.951547     0.309481     0.478524
   si1_1   Si     0.923395     0.318105     0.462350
   si1_1   Si     0.994225     0.221389     0.380526
   si1_1   Si     0.978003     0.250347     0.424203
   si1_1   Si     0.983992     0.251564     0.391170
   si1_1   Si     0.955839     0.260188     0.374996
   si1_1   Si     0.967769     0.280522     0.434847
   si1_1   Si     0.939617     0.289146     0.418673
   si1_1   Si     0.954095     0.227580     0.430419
   si1_1   Si     0.925943     0.236205     0.414245
   si1_1   Si     0.937873     0.256539     0.474096
   si1_1   Si     0.909721     0.265163     0.457922
   si1_1   Si     0.915709     0.266379     0.424889
   si1_1   Si     0.887557     0.275004     0.408714
   si1_1   Si     0.988283     0.202271     0.287642
   si1_1   Si     0.972061     0.231229     0.331319
   si1_1   Si     0.986540     0.169663     0.343065
   si1_1   Si     0.958387     0.178287     0.326891
   si1_1   Si     0.970318     0.198622     0.386742
   si1_1   Si     0.942165     0.207246     0.370568
   si1_1   Si     0.948154     0.208462     0.337534
   si1_1   Si     0.920001     0.217087     0.321360
   si1_1   Si     0.931932     0.237421     0.381211
   si1_1   Si     0.903779     0.246045     0.365037
   si1_1   Si     0.918258     0.184479     0.376783
   si1_1   Si     0.890105     0.193103     0.360609
   si1_1   Si     0.902036     0.213437     0.420460
   si1_1   Si     0.873883     0.222062     0.404286
   si1_1   Si     0.879872     0.223278     0.371253
   si1_1   Si     0.990832     0.120370     0.239537
   si1_1   Si     0.974610     0.149329     0.283214
   si1_1   Si     0.980598     0.150545     0.250180
   si1_1   Si     0.952446     0.159169     0.234006
   si1_1   Si     0.964376     0.179504     0.293857
   si1_1   Si     0.936223     0.188128     0.277683
   si1_1   Si     0.950702     0.126562     0.289429
   si1_1   Si     0.922550     0.135186     0.273255
   si1_1   Si     0.934480     0.155520     0.333106
   si1_1   Si     0.906327     0.164145     0.316932
   si1_1   Si     0.912316     0.165361     0.283899
   si1_1   Si     0.896094     0.194319     0.327576
   si1_1   Si     0.996820     0.121587     0.206503
   si1_1   Si     0.968668     0.130211     0.190329
   si1_1   Si     0.966924     0.097603     0.245752
   si1_1   Si     0.938772     0.106228     0.229578
   si1_1   Si     0.928538     0.136402     0.240222
   si1_1   Si     0.989129     0.385190     0.476737
   si1_1   Si     0.972906     0.414148     0.520414
   si1_1   Si     0.978895     0.415365     0.487381
   si1_1   Si     0.950743     0.423989     0.471207
   si1_1   Si     0.948999     0.391381     0.526630
   si1_1   Si     0.983187     0.366072     0.383853
   si1_1   Si     0.995117     0.386406     0.443704
   si1_1   Si     0.966965     0.395030     0.427530
   si1_1   Si     0.981443     0.333464     0.439276
   si1_1   Si     0.953291     0.342088     0.423102
   si1_1   Si     0.965221     0.362423     0.482953
   si1_1   Si     0.937069     0.371047     0.466779
   si1_1   Si     0.943057     0.372263     0.433745
   si1_1   Si     0.914905     0.380887     0.417571
   si1_1   Si     0.926835     0.401222     0.477422
   si1_1   Si     0.913161     0.348280     0.472994
   si1_1   Si     0.999409     0.337113     0.340176
   si1_1   Si     0.985735     0.284171     0.335747
   si1_1   Si     0.997665     0.304506     0.395599
   si1_1   Si     0.969513     0.313130     0.379424
   si1_1   Si     0.975502     0.314346     0.346391
   si1_1   Si     0.947349     0.322970     0.330217
   si1_1   Si     0.959279     0.343305     0.390068
   si1_1   Si     0.931127     0.351929     0.373894
   si1_1   Si     0.945605     0.290363     0.385640
   si1_1   Si     0.917453     0.298987     0.369466
   si1_1   Si     0.929383     0.319321     0.429317
   si1_1   Si     0.901231     0.327946     0.413143
   si1_1   Si     0.907219     0.329162     0.380110
   si1_1   Si     0.879067     0.337786     0.363935
   si1_1   Si     0.890997     0.358120     0.423787
   si1_1   Si     0.862845     0.366745     0.407613
   si1_1   Si     0.877323     0.305178     0.419358
   si1_1   Si     0.979793     0.265053     0.242863
   si1_1   Si     0.991724     0.285388     0.302714
   si1_1   Si     0.963571     0.294012     0.286540
   si1_1   Si     0.978050     0.232446     0.298286
   si1_1   Si     0.949897     0.241070     0.282112
   si1_1   Si     0.961828     0.261404     0.341963
   si1_1   Si     0.933675     0.270029     0.325789
   si1_1   Si     0.939664     0.271245     0.292755
   si1_1   Si     0.911511     0.279869     0.276581
   si1_1   Si     0.923442     0.300203     0.336433
   si1_1   Si     0.895289     0.308828     0.320258
   si1_1   Si     0.909768     0.247261     0.332004
   si1_1   Si     0.881615     0.255886     0.315830
   si1_1   Si     0.893546     0.276220     0.375681
   si1_1   Si     0.865393     0.284844     0.359507
   si1_1   Si     0.871382     0.286060     0.326474
   si1_1   Si     0.855159     0.315019     0.370151
   si1_1   Si     0.996016     0.236095     0.199186
   si1_1   Si     0.982342     0.183153     0.194758
   si1_1   Si     0.994272     0.203487     0.254609
   si1_1   Si     0.966120     0.212111     0.238435
   si1_1   Si     0.972108     0.213328     0.205401
   si1_1   Si     0.943956     0.221952     0.189227
   si1_1   Si     0.955886     0.242286     0.249078
   si1_1   Si     0.927733     0.250910     0.232904
   si1_1   Si     0.942212     0.189344     0.244650
   si1_1   Si     0.914060     0.197969     0.228476
   si1_1   Si     0.925990     0.218303     0.288327
   si1_1   Si     0.897837     0.226927     0.272153
   si1_1   Si     0.903826     0.228143     0.239120
   si1_1   Si     0.887604     0.257102     0.282797
   si1_1   Si     0.988330     0.184369     0.161724
   si1_1   Si     0.958434     0.160386     0.200973
   si1_1   Si     0.930282     0.169010     0.184799
   si1_1   Si     0.920048     0.199185     0.195443
   si1_1   Si     0.994312     0.500914     0.436387
   si1_1   Si     0.980639     0.447972     0.431958
   si1_1   Si     0.970405     0.478147     0.442602
   si1_1   Si     0.996861     0.419014     0.388281
   si1_1   Si     0.974697     0.428854     0.339074
   si1_1   Si     0.986627     0.449189     0.398925
   si1_1   Si     0.958475     0.457813     0.382751
   si1_1   Si     0.972953     0.396247     0.394497
   si1_1   Si     0.944801     0.404871     0.378323
   si1_1   Si     0.956731     0.425205     0.438174
   si1_1   Si     0.928579     0.433829     0.422000
   si1_1   Si     0.934567     0.435046     0.388966
   si1_1   Si     0.906415     0.443670     0.372792
   si1_1   Si     0.904671     0.411062     0.428215
   si1_1   Si     0.876519     0.419687     0.412041
   si1_1   Si     0.990919     0.399896     0.295397
   si1_1   Si     0.977245     0.346954     0.290968
   si1_1   Si     0.989175     0.367288     0.350820
   si1_1   Si     0.961023     0.375912     0.334646
   si1_1   Si     0.967012     0.377129     0.301612
   si1_1   Si     0.938859     0.385753     0.285438
   si1_1   Si     0.950789     0.406087     0.345289
   si1_1   Si     0.922637     0.414711     0.329115
   si1_1   Si     0.937115     0.353145     0.340861
   si1_1   Si     0.908963     0.361770     0.324687
   si1_1   Si     0.920893     0.382104     0.384538
   si1_1   Si     0.892741     0.390728     0.368364
   si1_1   Si     0.898729     0.391944     0.335331
   si1_1   Si     0.870577     0.400569     0.319157
   si1_1   Si     0.882507     0.420903     0.379008
   si1_1   Si     0.854355     0.429527     0.362834
   si1_1   Si     0.868833     0.367961     0.374579
   si1_1   Si     0.840681     0.376585     0.358405
   si1_1   Si     0.830447     0.406760     0.369049
   si1_1   Si     0.993467     0.317995     0.247291
   si1_1   Si     0.999456     0.319212     0.214258
   si1_1   Si     0.971303     0.327836     0.198084
   si1_1   Si     0.983234     0.348170     0.257935
   si1_1   Si     0.955081     0.356794     0.241761
   si1_1   Si     0.969560     0.295228     0.253507
   si1_1   Si     0.941407     0.303852     0.237333
   si1_1   Si     0.953338     0.324187     0.297184
   si1_1   Si     0.925185     0.332811     0.281010
   si1_1   Si     0.931174     0.334027     0.247976
   si1_1   Si     0.903021     0.342651     0.231802
   si1_1   Si     0.914952     0.362986     0.291654
   si1_1   Si     0.886799     0.371610     0.275479
   si1_1   Si     0.901278     0.310044     0.287225
   si1_1   Si     0.873125     0.318668     0.271051
   si1_1   Si     0.885055     0.339002     0.330902
   si1_1   Si     0.856903     0.347627     0.314728
   si1_1   Si     0.862892     0.348843     0.281695
   si1_1   Si     0.834739     0.357467     0.265521
   si1_1   Si     0.846669     0.377801     0.325372
   si1_1   Si     0.818517     0.386426     0.309198
   si1_1   Si     0.987526     0.298877     0.154407
   si1_1   Si     0.973852     0.245935     0.149979
   si1_1   Si     0.985782     0.266270     0.209830
   si1_1   Si     0.957629     0.274894     0.193656
   si1_1   Si     0.963618     0.276110     0.160622
   si1_1   Si     0.935466     0.284734     0.144448
   si1_1   Si     0.947396     0.305069     0.204299
   si1_1   Si     0.919243     0.313693     0.188125
   si1_1   Si     0.933722     0.252127     0.199871
   si1_1   Si     0.905570     0.260751     0.183697
   si1_1   Si     0.917500     0.281085     0.243548
   si1_1   Si     0.889347     0.289710     0.227374
   si1_1   Si     0.895336     0.290926     0.194341
   si1_1   Si     0.867183     0.299550     0.178167
   si1_1   Si     0.879114     0.319884     0.238018
   si1_1   Si     0.850961     0.328509     0.221844
   si1_1   Si     0.979840     0.247152     0.116945
   si1_1   Si     0.949944     0.223168     0.156194
   si1_1   Si     0.911558     0.261967     0.150664
   si1_1   Si     0.883406     0.270592     0.134490
   si1_1   Si     0.881662     0.237984     0.189912
   si1_1   Si     0.972149     0.510755     0.387179
   si1_1   Si     0.988371     0.481796     0.343502
   si1_1   Si     0.994359     0.483013     0.310469
   si1_1   Si     0.966207     0.491637     0.294295
   si1_1   Si     0.978137     0.511971     0.354146
   si1_1   Si     0.949985     0.520595     0.337972
   si1_1   Si     0.964463     0.459029     0.349718
   si1_1   Si     0.936311     0.467653     0.333544
   si1_1   Si     0.948241     0.487988     0.393395
   si1_1   Si     0.926077     0.497828     0.344187
   si1_1   Si     0.998651     0.433720     0.206941
   si1_1   Si     0.982429     0.462678     0.250618
   si1_1   Si     0.996908     0.401112     0.262364
   si1_1   Si     0.968755     0.409736     0.246189
   si1_1   Si     0.980685     0.430071     0.306041
   si1_1   Si     0.952533     0.438695     0.289867
   si1_1   Si     0.958522     0.439911     0.256833
   si1_1   Si     0.930369     0.448535     0.240659
   si1_1   Si     0.942299     0.468870     0.300510
   si1_1   Si     0.914147     0.477494     0.284336
   si1_1   Si     0.928625     0.415928     0.296082
   si1_1   Si     0.900473     0.424552     0.279908
   si1_1   Si     0.912403     0.444886     0.339759
   si1_1   Si     0.884251     0.453510     0.323585
   si1_1   Si     0.890239     0.454727     0.290552
   si1_1   Si     0.862087     0.463351     0.274378
   si1_1   Si     0.860343     0.430743     0.329800
   si1_1   Si     0.832191     0.439368     0.313626
   si1_1   Si     0.984977     0.380778     0.202512
   si1_1   Si     0.990966     0.381994     0.169479
   si1_1   Si     0.962813     0.390618     0.153305
   si1_1   Si     0.974744     0.410953     0.213156
   si1_1   Si     0.946591     0.419577     0.196982
   si1_1   Si     0.961070     0.358011     0.208728
   si1_1   Si     0.932917     0.366635     0.192554
   si1_1   Si     0.944848     0.386969     0.252405
   si1_1   Si     0.916695     0.395593     0.236231
   si1_1   Si     0.922684     0.396810     0.203198
   si1_1   Si     0.894531     0.405434     0.187023
   si1_1   Si     0.906462     0.425768     0.246875
   si1_1   Si     0.878309     0.434393     0.230700
   si1_1   Si     0.892788     0.372826     0.242446
   si1_1   Si     0.864635     0.381451     0.226272
   si1_1   Si     0.876565     0.401785     0.286123
   si1_1   Si     0.848413     0.410409     0.269949
   si1_1   Si     0.854402     0.411625     0.236916
   si1_1   Si     0.826249     0.420250     0.220742
   si1_1   Si     0.838179     0.440584     0.280593
   si1_1   Si     0.810027     0.449208     0.264419
   si1_1   Si     0.824506     0.387642     0.276165
   si1_1   Si     0.808283     0.416600     0.319842
   si1_1   Si     0.995258     0.332701     0.065951
   si1_1   Si     0.979036     0.361660     0.109628
   si1_1   Si     0.993514     0.300094     0.121374
   si1_1   Si     0.965362     0.308718     0.105200
   si1_1   Si     0.977292     0.329052     0.165051
   si1_1   Si     0.949139     0.337676     0.148877
   si1_1   Si     0.955128     0.338893     0.115843
   si1_1   Si     0.926976     0.347517     0.099669
   si1_1   Si     0.938906     0.367851     0.159520
   si1_1   Si     0.910753     0.376475     0.143346
   si1_1   Si     0.925232     0.314909     0.155092
   si1_1   Si     0.897080     0.323533     0.138918
   si1_1   Si     0.909010     0.343868     0.198769
   si1_1   Si     0.880857     0.352492     0.182595
   si1_1   Si     0.886846     0.353708     0.149562
   si1_1   Si     0.858693     0.362333     0.133388
   si1_1   Si     0.870624     0.382667     0.193239
   si1_1   Si     0.842471     0.391291     0.177065
   si1_1   Si     0.856950     0.329725     0.188810
   si1_1   Si     0.840728     0.358683     0.232487
   si1_1   Si     0.971350     0.309934     0.072166
   si1_1   Si     0.941454     0.285951     0.111415
   si1_1   Si     0.903068     0.324750     0.105885
   si1_1   Si     0.874916     0.333374     0.089711
   si1_1   Si     0.873172     0.300766     0.145133
   si1_1   Si     0.996103     0.515620     0.255046
   si1_1   Si     0.979881     0.544579     0.298723
   si1_1   Si     0.985869     0.545795     0.265690
   si1_1   Si     0.957717     0.554419     0.249516
   si1_1   Si     0.955973     0.521812     0.304939
   si1_1   Si     0.927821     0.530436     0.288765
   si1_1   Si     0.990161     0.496502     0.162162
   si1_1   Si     0.973939     0.525461     0.205839
   si1_1   Si     0.988418     0.463895     0.217585
   si1_1   Si     0.960265     0.472519     0.201411
   si1_1   Si     0.972195     0.492853     0.261262
   si1_1   Si     0.944043     0.501477     0.245088
   si1_1   Si     0.950032     0.502694     0.212054
   si1_1   Si     0.921879     0.511318     0.195880
   si1_1   Si     0.933809     0.531652     0.255731
   si1_1   Si     0.905657     0.540276     0.239557
   si1_1   Si     0.920135     0.478710     0.251303
   si1_1   Si     0.891983     0.487334     0.235129
   si1_1   Si     0.903913     0.507669     0.294980
   si1_1   Si     0.881749     0.517509     0.245773
   si1_1   Si     0.992709     0.414602     0.114056
   si1_1   Si     0.976487     0.443560     0.157733
   si1_1   Si     0.982476     0.444777     0.124700
   si1_1   Si     0.954323     0.453401     0.108526
   si1_1   Si     0.966254     0.473735     0.168377
   si1_1   Si     0.938101     0.482359     0.152203
   si1_1   Si     0.952580     0.420793     0.163949
   si1_1   Si     0.924427     0.429417     0.147775
   si1_1   Si     0.936358     0.449752     0.207626
   si1_1   Si     0.908205     0.458376     0.191452
   si1_1   Si     0.914194     0.459592     0.158419
   si1_1   Si     0.886041     0.468216     0.142244
   si1_1   Si     0.897972     0.488551     0.202096
   si1_1   Si     0.869819     0.497175     0.185921
   si1_1   Si     0.884298     0.435609     0.197667
   si1_1   Si     0.856145     0.444233     0.181493
   si1_1   Si     0.868075     0.464567     0.241344
   si1_1   Si     0.839923     0.473192     0.225170
   si1_1   Si     0.845912     0.474408     0.192137
   si1_1   Si     0.817759     0.483032     0.175963
   si1_1   Si     0.816016     0.450424     0.231386
   si1_1   Si     0.986768     0.395484     0.021172
   si1_1   Si     0.998698     0.415818     0.081023
   si1_1   Si     0.970546     0.424442     0.064849
   si1_1   Si     0.985024     0.362876     0.076595
   si1_1   Si     0.956872     0.371500     0.060421
   si1_1   Si     0.968802     0.391835     0.120272
   si1_1   Si     0.940649     0.400459     0.104098
   si1_1   Si     0.946638     0.401675     0.071064
   si1_1   Si     0.918486     0.410299     0.054890
   si1_1   Si     0.930416     0.430634     0.114741
   si1_1   Si     0.902263     0.439258     0.098567
   si1_1   Si     0.916742     0.377692     0.110313
   si1_1   Si     0.888590     0.386316     0.094139
   si1_1   Si     0.900520     0.406650     0.153990
   si1_1   Si     0.872367     0.415274     0.137816
   si1_1   Si     0.878356     0.416491     0.104783
   si1_1   Si     0.850203     0.425115     0.088609
   si1_1   Si     0.862134     0.445449     0.148460
   si1_1   Si     0.833981     0.454074     0.132286
   si1_1   Si     0.848460     0.392507     0.144031
   si1_1   Si     0.832238     0.421466     0.187709
   si1_1   Si     0.810074     0.431306     0.138501
   si1_1   Si     0.793852     0.460265     0.182178
   si1_1   Si     0.962860     0.372717     0.027387
   si1_1   Si     0.932964     0.348733     0.066636
   si1_1   Si     0.894578     0.387532     0.061106
   si1_1   Si     0.864682     0.363549     0.100354
   si1_1   Si     0.836530     0.372173     0.084180
   si1_1   Si     0.826296     0.402348     0.094824
   si1_1   Si     0.981671     0.559285     0.117383
   si1_1   Si     0.979928     0.526677     0.172806
   si1_1   Si     0.951775     0.535301     0.156632
   si1_1   Si     0.963705     0.555636     0.216483
   si1_1   Si     0.911645     0.541493     0.206524
   si1_1   Si     0.883493     0.550117     0.190350
   si1_1   Si     0.997893     0.530326     0.073706
   si1_1   Si     0.984219     0.477384     0.069277
   si1_1   Si     0.996150     0.497719     0.129129
   si1_1   Si     0.967997     0.506343     0.112954
   si1_1   Si     0.973986     0.507559     0.079921
   si1_1   Si     0.945833     0.516183     0.063747
   si1_1   Si     0.957764     0.536518     0.123598
   si1_1   Si     0.929611     0.545142     0.107424
   si1_1   Si     0.944090     0.483576     0.119170
   si1_1   Si     0.915937     0.492200     0.102996
   si1_1   Si     0.927868     0.512534     0.162847
   si1_1   Si     0.899715     0.521158     0.146673
   si1_1   Si     0.905704     0.522375     0.113640
   si1_1   Si     0.877551     0.530999     0.097465
   si1_1   Si     0.875808     0.498391     0.152888
   si1_1   Si     0.847655     0.507015     0.136714
   si1_1   Si     0.859585     0.527350     0.196565
   si1_1   Si     0.831433     0.535974     0.180391
   si1_1   Si     0.837422     0.537190     0.147358
   si1_1   Si     0.807526     0.513207     0.186607
   si1_1   Si     0.990208     0.478601     0.036244
   si1_1   Si     0.962056     0.487225     0.020070
   si1_1   Si     0.976534     0.425659     0.031816
   si1_1   Si     0.948382     0.434283     0.015642
   si1_1   Si     0.960312     0.454617     0.075493
   si1_1   Si     0.932159     0.463241     0.059319
   si1_1   Si     0.938148     0.464458     0.026285
   si1_1   Si     0.909996     0.473082     0.010111
   si1_1   Si     0.921926     0.493416     0.069963
   si1_1   Si     0.893773     0.502040     0.053788
   si1_1   Si     0.908252     0.440474     0.065534
   si1_1   Si     0.880100     0.449098     0.049360
   si1_1   Si     0.892030     0.469433     0.109211
   si1_1   Si     0.863877     0.478057     0.093037
   si1_1   Si     0.869866     0.479273     0.060004
   si1_1   Si     0.841713     0.487897     0.043830
   si1_1   Si     0.853644     0.508232     0.103681
   si1_1   Si     0.825491     0.516856     0.087507
   si1_1   Si     0.839970     0.455290     0.099252
   si1_1   Si     0.811817     0.463914     0.083078
   si1_1   Si     0.823748     0.484248     0.142930
   si1_1   Si     0.795595     0.492873     0.126755
   si1_1   Si     0.801584     0.494089     0.093722
   si1_1   Si     0.924474     0.411516     0.021857
   si1_1   Si     0.886088     0.450315     0.016327
   si1_1   Si     0.856192     0.426331     0.055575
   si1_1   Si     0.828040     0.434956     0.039401
   si1_1   Si     0.817806     0.465130     0.050045
   si1_1   Si     0.975729     0.540167     0.024498
   si1_1   Si     0.987660     0.560501     0.084350
   si1_1   Si     0.935600     0.546358     0.074391
   si1_1   Si     0.951822     0.517400     0.030714
   si1_1   Si     0.899762     0.503257     0.020755
   si1_1   Si     0.883540     0.532215     0.064432
   si1_1   Si     0.831480     0.518072     0.054473
   si1_1   Si     0.803327     0.526697     0.038299
   si1_1   Si     0.847702     0.489114     0.010796
   si1_1   Si     0.826245     0.003286     0.409662
   si1_1   Si     0.779575     0.068123     0.502749
   si1_1   Si     0.786570     0.025297     0.455263
   si1_1   Si     0.807602     0.026050     0.481447
   si1_1   Si     0.765601     0.016618     0.515454
   si1_1   Si     0.795955     0.005989     0.505746
   si1_1   Si     0.816986     0.006742     0.531931
   si1_1   Si     0.760932     0.090888     0.574534
   si1_1   Si     0.767927     0.048062     0.527048
   si1_1   Si     0.788959     0.048815     0.553232
   si1_1   Si     0.746958     0.039383     0.587239
   si1_1   Si     0.777312     0.028753     0.577531
   si1_1   Si     0.798343     0.029506     0.603716
   si1_1   Si     0.749284     0.070826     0.598833
   si1_1   Si     0.770316     0.071579     0.625018
   si1_1   Si     0.758669     0.051518     0.649316
   si1_1   Si     0.786696     0.009445     0.628014
   si1_1   Si     0.807728     0.010198     0.654199
   si1_1   Si     0.863576     0.086988     0.434737
   si1_1   Si     0.870571     0.044162     0.387250
   si1_1   Si     0.891603     0.044915     0.413435
   si1_1   Si     0.828571     0.034729     0.421256
   si1_1   Si     0.849602     0.035482     0.447441
   si1_1   Si     0.879956     0.024853     0.437733
   si1_1   Si     0.900987     0.025606     0.463918
   si1_1   Si     0.835548     0.129061     0.456038
   si1_1   Si     0.821575     0.077555     0.468743
   si1_1   Si     0.823901     0.108999     0.480337
   si1_1   Si     0.844933     0.109752     0.506522
   si1_1   Si     0.851928     0.066926     0.459035
   si1_1   Si     0.872960     0.067679     0.485220
   si1_1   Si     0.809928     0.057494     0.493041
   si1_1   Si     0.830959     0.058247     0.519226
   si1_1   Si     0.837955     0.015421     0.471740
   si1_1   Si     0.858987     0.016174     0.497924
   si1_1   Si     0.861313     0.047618     0.509518
   si1_1   Si     0.882344     0.048371     0.535703
   si1_1   Si     0.889340     0.005545     0.488217
   si1_1   Si     0.910372     0.006298     0.514401
   si1_1   Si     0.781900     0.099567     0.514343
   si1_1   Si     0.802932     0.100320     0.540528
   si1_1   Si     0.805258     0.131764     0.552122
   si1_1   Si     0.826290     0.132517     0.578307
   si1_1   Si     0.833285     0.089691     0.530820
   si1_1   Si     0.854317     0.090444     0.557005
   si1_1   Si     0.791285     0.080259     0.564826
   si1_1   Si     0.812317     0.081012     0.591011
   si1_1   Si     0.819312     0.038186     0.543525
   si1_1   Si     0.840344     0.038939     0.569709
   si1_1   Si     0.842670     0.070382     0.581303
   si1_1   Si     0.863701     0.071135     0.607488
   si1_1   Si     0.870697     0.028309     0.560002
   si1_1   Si     0.891729     0.029062     0.586186
   si1_1   Si     0.828696     0.018877     0.594008
   si1_1   Si     0.849728     0.019630     0.620193
   si1_1   Si     0.880081     0.009001     0.610485
   si1_1   Si     0.901113     0.009754     0.636670
   si1_1   Si     0.784289     0.123085     0.612313
   si1_1   Si     0.807647     0.155281     0.650092
   si1_1   Si     0.814642     0.112455     0.602605
   si1_1   Si     0.835674     0.113208     0.628790
   si1_1   Si     0.772642     0.103023     0.636612
   si1_1   Si     0.793674     0.103776     0.662796
   si1_1   Si     0.800669     0.060950     0.615310
   si1_1   Si     0.821701     0.061703     0.641494
   si1_1   Si     0.824027     0.093147     0.653088
   si1_1   Si     0.845059     0.093900     0.679273
   si1_1   Si     0.852054     0.051074     0.631787
   si1_1   Si     0.873086     0.051827     0.657971
   si1_1   Si     0.810054     0.041642     0.665793
   si1_1   Si     0.831085     0.042395     0.691978
   si1_1   Si     0.859113     0.000322     0.670676
   si1_1   Si     0.861438     0.031765     0.682270
   si1_1   Si     0.882470     0.032518     0.708455
   si1_1   Si     0.926545     0.105099     0.340539
   si1_1   Si     0.947577     0.105852     0.366724
   si1_1   Si     0.975604     0.063779     0.345422
   si1_1   Si     0.933603     0.054347     0.379428
   si1_1   Si     0.963957     0.043717     0.369721
   si1_1   Si     0.984988     0.044470     0.395905
   si1_1   Si     0.919549     0.147925     0.388026
   si1_1   Si     0.877549     0.138493     0.422032
   si1_1   Si     0.884544     0.095667     0.374546
   si1_1   Si     0.905576     0.096420     0.400730
   si1_1   Si     0.907902     0.127863     0.412324
   si1_1   Si     0.928934     0.128616     0.438509
   si1_1   Si     0.935929     0.085790     0.391022
   si1_1   Si     0.956961     0.086543     0.417207
   si1_1   Si     0.893929     0.076358     0.425029
   si1_1   Si     0.914960     0.077111     0.451214
   si1_1   Si     0.921956     0.034285     0.403727
   si1_1   Si     0.942988     0.035038     0.429912
   si1_1   Si     0.945314     0.066482     0.441506
   si1_1   Si     0.966345     0.067235     0.467690
   si1_1   Si     0.973341     0.024409     0.420204
   si1_1   Si     0.994373     0.025162     0.446389
   si1_1   Si     0.931340     0.014977     0.454210
   si1_1   Si     0.952372     0.015730     0.480395
   si1_1   Si     0.982725     0.005101     0.470687
   si1_1   Si     0.879875     0.169937     0.433626
   si1_1   Si     0.900906     0.170690     0.459811
   si1_1   Si     0.858906     0.161257     0.493817
   si1_1   Si     0.865901     0.118431     0.446331
   si1_1   Si     0.886933     0.119184     0.472515
   si1_1   Si     0.889259     0.150628     0.484109
   si1_1   Si     0.910291     0.151381     0.510294
   si1_1   Si     0.917286     0.108555     0.462808
   si1_1   Si     0.938318     0.109308     0.488992
   si1_1   Si     0.875286     0.099123     0.496814
   si1_1   Si     0.896318     0.099876     0.522999
   si1_1   Si     0.903313     0.057050     0.475512
   si1_1   Si     0.924345     0.057803     0.501697
   si1_1   Si     0.926671     0.089247     0.513291
   si1_1   Si     0.947702     0.090000     0.539475
   si1_1   Si     0.954698     0.047174     0.491989
   si1_1   Si     0.975730     0.047927     0.518174
   si1_1   Si     0.912698     0.037741     0.525995
   si1_1   Si     0.933729     0.038494     0.552180
   si1_1   Si     0.964082     0.027865     0.542472
   si1_1   Si     0.985114     0.028618     0.568657
   si1_1   Si     0.861232     0.192701     0.505411
   si1_1   Si     0.882263     0.193454     0.531596
   si1_1   Si     0.840263     0.184022     0.565602
   si1_1   Si     0.847259     0.141196     0.518116
   si1_1   Si     0.868290     0.141949     0.544300
   si1_1   Si     0.870616     0.173393     0.555894
   si1_1   Si     0.891648     0.174146     0.582079
   si1_1   Si     0.898643     0.131320     0.534593
   si1_1   Si     0.919675     0.132073     0.560777
   si1_1   Si     0.856643     0.121888     0.568599
   si1_1   Si     0.877675     0.122641     0.594784
   si1_1   Si     0.884670     0.079814     0.547297
   si1_1   Si     0.905702     0.080567     0.573482
   si1_1   Si     0.908028     0.112011     0.585076
   si1_1   Si     0.929060     0.112764     0.611261
   si1_1   Si     0.936055     0.069938     0.563774
   si1_1   Si     0.957087     0.070691     0.589959
   si1_1   Si     0.894055     0.060506     0.597780
   si1_1   Si     0.915086     0.061259     0.623965
   si1_1   Si     0.922082     0.018433     0.576478
   si1_1   Si     0.943114     0.019186     0.602663
   si1_1   Si     0.945440     0.050630     0.614257
   si1_1   Si     0.966471     0.051383     0.640442
   si1_1   Si     0.973467     0.008557     0.592955
   si1_1   Si     0.994499     0.009310     0.619140
   si1_1   Si     0.952498     0.999878     0.653146
   si1_1   Si     0.863621     0.216219     0.603381
   si1_1   Si     0.828616     0.163961     0.589901
   si1_1   Si     0.849647     0.164714     0.616085
   si1_1   Si     0.851973     0.196157     0.627679
   si1_1   Si     0.873005     0.196910     0.653864
   si1_1   Si     0.880000     0.154084     0.606378
   si1_1   Si     0.901032     0.154837     0.632562
   si1_1   Si     0.838000     0.144652     0.640384
   si1_1   Si     0.859032     0.145405     0.666569
   si1_1   Si     0.866027     0.102579     0.619082
   si1_1   Si     0.887059     0.103332     0.645267
   si1_1   Si     0.889385     0.134776     0.656861
   si1_1   Si     0.910417     0.135529     0.683046
   si1_1   Si     0.917412     0.092703     0.635559
   si1_1   Si     0.938444     0.093456     0.661744
   si1_1   Si     0.875412     0.083271     0.669565
   si1_1   Si     0.896443     0.084024     0.695750
   si1_1   Si     0.903439     0.041198     0.648264
   si1_1   Si     0.924471     0.041951     0.674448
   si1_1   Si     0.926797     0.073394     0.686042
   si1_1   Si     0.947828     0.074147     0.712227
   si1_1   Si     0.954824     0.031321     0.664740
   si1_1   Si     0.975856     0.032074     0.690925
   si1_1   Si     0.912823     0.021889     0.698747
   si1_1   Si     0.933855     0.022642     0.724931
   si1_1   Si     0.964208     0.012013     0.715224
   si1_1   Si     0.985240     0.012766     0.741408
   si1_1   Si     0.861358     0.176849     0.678163
   si1_1   Si     0.898769     0.115467     0.707344
   si1_1   Si     0.919801     0.116220     0.733529
   si1_1   Si     0.884796     0.063962     0.720049
   si1_1   Si     0.936181     0.054086     0.736525
   si1_1   Si     0.957213     0.054839     0.762710
   si1_1   Si     0.922208     0.002581     0.749230
   si1_1   Si     0.977930     0.095223     0.357016
   si1_1   Si     0.998962     0.095976     0.383201
   si1_1   Si     0.942907     0.180122     0.425804
   si1_1   Si     0.949902     0.137296     0.378318
   si1_1   Si     0.970934     0.138049     0.404503
   si1_1   Si     0.973260     0.169492     0.416097
   si1_1   Si     0.994292     0.170245     0.442281
   si1_1   Si     0.959287     0.117987     0.428801
   si1_1   Si     0.980319     0.118740     0.454986
   si1_1   Si     0.987314     0.075914     0.407499
   si1_1   Si     0.996699     0.056606     0.457983
   si1_1   Si     0.914880     0.222195     0.447106
   si1_1   Si     0.938237     0.254391     0.484885
   si1_1   Si     0.945233     0.211565     0.437399
   si1_1   Si     0.966264     0.212318     0.463583
   si1_1   Si     0.903232     0.202133     0.471405
   si1_1   Si     0.924264     0.202886     0.497590
   si1_1   Si     0.931260     0.160060     0.450103
   si1_1   Si     0.952291     0.160813     0.476288
   si1_1   Si     0.954617     0.192257     0.487882
   si1_1   Si     0.975649     0.193010     0.514066
   si1_1   Si     0.982644     0.150184     0.466580
   si1_1   Si     0.940644     0.140752     0.500586
   si1_1   Si     0.961676     0.141505     0.526771
   si1_1   Si     0.968671     0.098679     0.479284
   si1_1   Si     0.989703     0.099432     0.505469
   si1_1   Si     0.992029     0.130875     0.517063
   si1_1   Si     0.978056     0.079370     0.529768
   si1_1   Si     0.999087     0.080123     0.555952
   si1_1   Si     0.919594     0.277156     0.556670
   si1_1   Si     0.926590     0.234330     0.509184
   si1_1   Si     0.947622     0.235083     0.535368
   si1_1   Si     0.884589     0.224898     0.543190
   si1_1   Si     0.905621     0.225651     0.569375
   si1_1   Si     0.912617     0.182825     0.521888
   si1_1   Si     0.933648     0.183578     0.548073
   si1_1   Si     0.935974     0.215022     0.559667
   si1_1   Si     0.957006     0.215775     0.585851
   si1_1   Si     0.964002     0.172949     0.538365
   si1_1   Si     0.985033     0.173702     0.564550
   si1_1   Si     0.922001     0.163516     0.572371
   si1_1   Si     0.943033     0.164269     0.598556
   si1_1   Si     0.950028     0.121443     0.551069
   si1_1   Si     0.971060     0.122196     0.577254
   si1_1   Si     0.973386     0.153640     0.588848
   si1_1   Si     0.994418     0.154393     0.615033
   si1_1   Si     0.959413     0.102135     0.601553
   si1_1   Si     0.980444     0.102888     0.627737
   si1_1   Si     0.987440     0.060062     0.580251
   si1_1   Si     0.996824     0.040753     0.630734
   si1_1   Si     0.907947     0.257095     0.580969
   si1_1   Si     0.928979     0.257848     0.607153
   si1_1   Si     0.886978     0.248415     0.641160
   si1_1   Si     0.893974     0.205589     0.593673
   si1_1   Si     0.915005     0.206342     0.619858
   si1_1   Si     0.917331     0.237786     0.631452
   si1_1   Si     0.938363     0.238539     0.657637
   si1_1   Si     0.945359     0.195713     0.610150
   si1_1   Si     0.966390     0.196466     0.636335
   si1_1   Si     0.903358     0.186281     0.644156
   si1_1   Si     0.924390     0.187034     0.670341
   si1_1   Si     0.931385     0.144208     0.622855
   si1_1   Si     0.952417     0.144961     0.649039
   si1_1   Si     0.954743     0.176405     0.660633
   si1_1   Si     0.975775     0.177158     0.686818
   si1_1   Si     0.982770     0.134332     0.639331
   si1_1   Si     0.940770     0.124900     0.673338
   si1_1   Si     0.961802     0.125653     0.699522
   si1_1   Si     0.968797     0.082826     0.652036
   si1_1   Si     0.989829     0.083579     0.678221
   si1_1   Si     0.992155     0.115023     0.689815
   si1_1   Si     0.978182     0.063518     0.702519
   si1_1   Si     0.999213     0.064271     0.728704
   si1_1   Si     0.910336     0.280612     0.678938
   si1_1   Si     0.875331     0.228354     0.665458
   si1_1   Si     0.896362     0.229107     0.691643
   si1_1   Si     0.898688     0.260551     0.703237
   si1_1   Si     0.926716     0.218478     0.681935
   si1_1   Si     0.947747     0.219231     0.708120
   si1_1   Si     0.912742     0.166973     0.694640
   si1_1   Si     0.933774     0.167726     0.720824
   si1_1   Si     0.936100     0.199169     0.732418
   si1_1   Si     0.964127     0.157096     0.711116
   si1_1   Si     0.985159     0.157849     0.737301
   si1_1   Si     0.950154     0.105591     0.723821
   si1_1   Si     0.971186     0.106344     0.750006
   si1_1   Si     0.973512     0.137788     0.761600
   si1_1   Si     0.987566     0.044210     0.753002
   si1_1   Si     0.968590     0.243762     0.475177
   si1_1   Si     0.989622     0.244515     0.501362
   si1_1   Si     0.996618     0.201689     0.453875
   si1_1   Si     0.961595     0.286588     0.522664
   si1_1   Si     0.963921     0.318032     0.534258
   si1_1   Si     0.984952     0.318785     0.560442
   si1_1   Si     0.991948     0.275959     0.512956
   si1_1   Si     0.949947     0.266527     0.546962
   si1_1   Si     0.970979     0.267280     0.573147
   si1_1   Si     0.977975     0.224454     0.525660
   si1_1   Si     0.999006     0.225207     0.551845
   si1_1   Si     0.987359     0.205145     0.576144
   si1_1   Si     0.942952     0.309353     0.594449
   si1_1   Si     0.966309     0.341550     0.632228
   si1_1   Si     0.973305     0.298724     0.584741
   si1_1   Si     0.994337     0.299476     0.610926
   si1_1   Si     0.931305     0.289291     0.618747
   si1_1   Si     0.952336     0.290044     0.644932
   si1_1   Si     0.959332     0.247218     0.597445
   si1_1   Si     0.980364     0.247971     0.623630
   si1_1   Si     0.982689     0.279415     0.635224
   si1_1   Si     0.968716     0.227910     0.647929
   si1_1   Si     0.989748     0.228663     0.674113
   si1_1   Si     0.996744     0.185837     0.626627
   si1_1   Si     0.954662     0.321488     0.656526
   si1_1   Si     0.975694     0.322241     0.682711
   si1_1   Si     0.933693     0.312809     0.716717
   si1_1   Si     0.940689     0.269983     0.669231
   si1_1   Si     0.961721     0.270736     0.695415
   si1_1   Si     0.964046     0.302180     0.707009
   si1_1   Si     0.985078     0.302933     0.733194
   si1_1   Si     0.992074     0.260107     0.685707
   si1_1   Si     0.950073     0.250674     0.719714
   si1_1   Si     0.971105     0.251427     0.745898
   si1_1   Si     0.978101     0.208601     0.698412
   si1_1   Si     0.999132     0.209354     0.724597
   si1_1   Si     0.987485     0.189293     0.748895
   si1_1   Si     0.987278     0.350229     0.572036
   si1_1   Si     0.996663     0.330920     0.622520
   si1_1   Si     0.989667     0.373746     0.670006
   si1_1   Si     0.978020     0.353685     0.694305
   si1_1   Si     0.999051     0.354438     0.720489
   si1_1   Si     0.987404     0.334376     0.744788
   si1_1   Si     0.751115     0.543574     0.888881
   si1_1   Si     0.769463     0.566759     0.842672
   si1_1   Si     0.787811     0.589943     0.796462
   si1_1   Si     0.788101     0.638929     0.821155
   si1_1   Si     0.806448     0.662113     0.774946
   si1_1   Si     0.806738     0.711099     0.799638
   si1_1   Si     0.825086     0.734283     0.753429
   si1_1   Si     0.843723     0.806454     0.731912
   si1_1   Si     0.778707     0.604541     0.767609
   si1_1   Si     0.806159     0.613127     0.750253
   si1_1   Si     0.797054     0.627725     0.721399
   si1_1   Si     0.824506     0.636311     0.704044
   si1_1   Si     0.824796     0.685297     0.728736
   si1_1   Si     0.815692     0.699895     0.699882
   si1_1   Si     0.843144     0.708481     0.682527
   si1_1   Si     0.843434     0.757467     0.707220
   si1_1   Si     0.861781     0.780652     0.661010
   si1_1   Si     0.862071     0.829638     0.685703
   si1_1   Si     0.880419     0.852822     0.639493
   si1_1   Si     0.760295     0.527279     0.982039
   si1_1   Si     0.806170     0.557352     0.982779
   si1_1   Si     0.751480     0.590863     0.977878
   si1_1   Si     0.778932     0.599449     0.960523
   si1_1   Si     0.779222     0.648435     0.985215
   si1_1   Si     0.797355     0.620936     0.978618
   si1_1   Si     0.824807     0.629522     0.961263
   si1_1   Si     0.825097     0.678508     0.985955
   si1_1   Si     0.770118     0.663034     0.956361
   si1_1   Si     0.797570     0.671620     0.939006
   si1_1   Si     0.797859     0.720606     0.963698
   si1_1   Si     0.815993     0.693107     0.957101
   si1_1   Si     0.843445     0.701692     0.939746
   si1_1   Si     0.843734     0.750679     0.964438
   si1_1   Si     0.816207     0.743790     0.917489
   si1_1   Si     0.816497     0.792776     0.942181
   si1_1   Si     0.834630     0.765277     0.935584
   si1_1   Si     0.862082     0.773863     0.918229
   si1_1   Si     0.834845     0.815960     0.895972
   si1_1   Si     0.805880     0.508366     0.958087
   si1_1   Si     0.778353     0.501477     0.911138
   si1_1   Si     0.751190     0.541877     0.953186
   si1_1   Si     0.778642     0.550463     0.935830
   si1_1   Si     0.796776     0.522964     0.929233
   si1_1   Si     0.824228     0.531550     0.911878
   si1_1   Si     0.797065     0.571950     0.953926
   si1_1   Si     0.824517     0.580536     0.936570
   si1_1   Si     0.769538     0.565061     0.906976
   si1_1   Si     0.796990     0.573647     0.889621
   si1_1   Si     0.769828     0.614048     0.931669
   si1_1   Si     0.797280     0.622633     0.914313
   si1_1   Si     0.815413     0.595134     0.907716
   si1_1   Si     0.842865     0.603720     0.890361
   si1_1   Si     0.815703     0.644120     0.932409
   si1_1   Si     0.843155     0.652706     0.915053
   si1_1   Si     0.788176     0.637232     0.885459
   si1_1   Si     0.815628     0.645818     0.868104
   si1_1   Si     0.788465     0.686218     0.910152
   si1_1   Si     0.815917     0.694804     0.892797
   si1_1   Si     0.834051     0.667305     0.886200
   si1_1   Si     0.861503     0.675891     0.868844
   si1_1   Si     0.834340     0.716291     0.910892
   si1_1   Si     0.861792     0.724877     0.893537
   si1_1   Si     0.806813     0.709402     0.863943
   si1_1   Si     0.834265     0.717988     0.846587
   si1_1   Si     0.807103     0.758388     0.888635
   si1_1   Si     0.834555     0.766974     0.871280
   si1_1   Si     0.852688     0.739475     0.864683
   si1_1   Si     0.880140     0.748061     0.847327
   si1_1   Si     0.852978     0.788461     0.889375
   si1_1   Si     0.880430     0.797047     0.872020
   si1_1   Si     0.825451     0.781572     0.842426
   si1_1   Si     0.852903     0.790158     0.825070
   si1_1   Si     0.853193     0.839144     0.849763
   si1_1   Si     0.871326     0.811645     0.843166
   si1_1   Si     0.898778     0.820231     0.825811
   si1_1   Si     0.823938     0.482564     0.887185
   si1_1   Si     0.796700     0.524661     0.864928
   si1_1   Si     0.814834     0.497162     0.858332
   si1_1   Si     0.842286     0.505748     0.840976
   si1_1   Si     0.815123     0.546148     0.883024
   si1_1   Si     0.842575     0.554734     0.865669
   si1_1   Si     0.787596     0.539259     0.836075
   si1_1   Si     0.815048     0.547845     0.818719
   si1_1   Si     0.787886     0.588246     0.860767
   si1_1   Si     0.815338     0.596832     0.843412
   si1_1   Si     0.833471     0.569332     0.836815
   si1_1   Si     0.860923     0.577918     0.819459
   si1_1   Si     0.833761     0.618318     0.861507
   si1_1   Si     0.861213     0.626904     0.844152
   si1_1   Si     0.806234     0.611430     0.814558
   si1_1   Si     0.833686     0.620016     0.797202
   si1_1   Si     0.806524     0.660416     0.839250
   si1_1   Si     0.833976     0.669002     0.821895
   si1_1   Si     0.852109     0.641503     0.815298
   si1_1   Si     0.879561     0.650089     0.797943
   si1_1   Si     0.852398     0.690489     0.839990
   si1_1   Si     0.879850     0.699075     0.822635
   si1_1   Si     0.824871     0.683600     0.793041
   si1_1   Si     0.852323     0.692186     0.775686
   si1_1   Si     0.825161     0.732586     0.817733
   si1_1   Si     0.852613     0.741172     0.800378
   si1_1   Si     0.870746     0.713673     0.793781
   si1_1   Si     0.898198     0.722259     0.776426
   si1_1   Si     0.871036     0.762659     0.818473
   si1_1   Si     0.898488     0.771245     0.801118
   si1_1   Si     0.843509     0.755770     0.771524
   si1_1   Si     0.870961     0.764356     0.754169
   si1_1   Si     0.843799     0.804756     0.796217
   si1_1   Si     0.871251     0.813342     0.778861
   si1_1   Si     0.889384     0.785843     0.772264
   si1_1   Si     0.916836     0.794429     0.754909
   si1_1   Si     0.889674     0.834829     0.796957
   si1_1   Si     0.917126     0.843415     0.779601
   si1_1   Si     0.862146     0.827941     0.750007
   si1_1   Si     0.889598     0.836526     0.732652
   si1_1   Si     0.889888     0.885513     0.757344
   si1_1   Si     0.908021     0.858013     0.750747
   si1_1   Si     0.935473     0.866599     0.733392
   si1_1   Si     0.860344     0.479946     0.770074
   si1_1   Si     0.833181     0.520346     0.812122
   si1_1   Si     0.860633     0.528932     0.794767
   si1_1   Si     0.805944     0.562444     0.789865
   si1_1   Si     0.833396     0.571030     0.772510
   si1_1   Si     0.851529     0.543530     0.765913
   si1_1   Si     0.878981     0.552116     0.748558
   si1_1   Si     0.851819     0.592516     0.790605
   si1_1   Si     0.879271     0.601102     0.773250
   si1_1   Si     0.824292     0.585628     0.743656
   si1_1   Si     0.851744     0.594214     0.726301
   si1_1   Si     0.824582     0.634614     0.768349
   si1_1   Si     0.852034     0.643200     0.750993
   si1_1   Si     0.870167     0.615701     0.744396
   si1_1   Si     0.897619     0.624287     0.727041
   si1_1   Si     0.870457     0.664687     0.769089
   si1_1   Si     0.897909     0.673273     0.751733
   si1_1   Si     0.842929     0.657798     0.722139
   si1_1   Si     0.870381     0.666384     0.704784
   si1_1   Si     0.843219     0.706784     0.746832
   si1_1   Si     0.870671     0.715370     0.729476
   si1_1   Si     0.888804     0.687871     0.722879
   si1_1   Si     0.916256     0.696457     0.705524
   si1_1   Si     0.889094     0.736857     0.747572
   si1_1   Si     0.916546     0.745443     0.730216
   si1_1   Si     0.861567     0.729968     0.700623
   si1_1   Si     0.889019     0.738554     0.683267
   si1_1   Si     0.861857     0.778954     0.725315
   si1_1   Si     0.889309     0.787540     0.707960
   si1_1   Si     0.907442     0.760041     0.701363
   si1_1   Si     0.934894     0.768627     0.684007
   si1_1   Si     0.907732     0.809027     0.726055
   si1_1   Si     0.935184     0.817613     0.708700
   si1_1   Si     0.880204     0.802139     0.679106
   si1_1   Si     0.907656     0.810725     0.661750
   si1_1   Si     0.880494     0.851125     0.703798
   si1_1   Si     0.907946     0.859711     0.686443
   si1_1   Si     0.926079     0.832211     0.679846
   si1_1   Si     0.953531     0.840797     0.662490
   si1_1   Si     0.878692     0.503130     0.723865
   si1_1   Si     0.851454     0.545228     0.701608
   si1_1   Si     0.869587     0.517728     0.695011
   si1_1   Si     0.897039     0.526314     0.677656
   si1_1   Si     0.869877     0.566715     0.719704
   si1_1   Si     0.897329     0.575300     0.702348
   si1_1   Si     0.842640     0.608812     0.697447
   si1_1   Si     0.870092     0.617398     0.680092
   si1_1   Si     0.888225     0.589899     0.673495
   si1_1   Si     0.915677     0.598485     0.656139
   si1_1   Si     0.888515     0.638885     0.698187
   si1_1   Si     0.915967     0.647471     0.680832
   si1_1   Si     0.861277     0.680982     0.675930
   si1_1   Si     0.888729     0.689568     0.658575
   si1_1   Si     0.906862     0.662069     0.651978
   si1_1   Si     0.934314     0.670655     0.634622
   si1_1   Si     0.907152     0.711055     0.676670
   si1_1   Si     0.934604     0.719641     0.659315
   si1_1   Si     0.879915     0.753152     0.654413
   si1_1   Si     0.907367     0.761738     0.637058
   si1_1   Si     0.925500     0.734239     0.630461
   si1_1   Si     0.952952     0.742825     0.613106
   si1_1   Si     0.925790     0.783225     0.655153
   si1_1   Si     0.953242     0.791811     0.637798
   si1_1   Si     0.898552     0.825323     0.632896
   si1_1   Si     0.926004     0.833909     0.615541
   si1_1   Si     0.944137     0.806409     0.608944
   si1_1   Si     0.971589     0.814995     0.591589
   si1_1   Si     0.944427     0.855396     0.633637
   si1_1   Si     0.852045     0.587425     0.983520
   si1_1   Si     0.897920     0.617498     0.984260
   si1_1   Si     0.843230     0.651009     0.979358
   si1_1   Si     0.870682     0.659595     0.962003
   si1_1   Si     0.870972     0.708581     0.986695
   si1_1   Si     0.889105     0.681082     0.980098
   si1_1   Si     0.916557     0.689668     0.962743
   si1_1   Si     0.916847     0.738654     0.987435
   si1_1   Si     0.861868     0.723179     0.957841
   si1_1   Si     0.889320     0.731765     0.940486
   si1_1   Si     0.862157     0.772166     0.982534
   si1_1   Si     0.889609     0.780751     0.965178
   si1_1   Si     0.907743     0.753252     0.958581
   si1_1   Si     0.935195     0.761838     0.941226
   si1_1   Si     0.908032     0.802238     0.983274
   si1_1   Si     0.935484     0.810824     0.965918
   si1_1   Si     0.880505     0.795350     0.936324
   si1_1   Si     0.907957     0.803936     0.918969
   si1_1   Si     0.926380     0.825423     0.937065
   si1_1   Si     0.953832     0.834009     0.919709
   si1_1   Si     0.878992     0.496341     0.981084
   si1_1   Si     0.851465     0.489453     0.934135
   si1_1   Si     0.824303     0.529853     0.976182
   si1_1   Si     0.851755     0.538439     0.958827
   si1_1   Si     0.869888     0.510940     0.952230
   si1_1   Si     0.897340     0.519525     0.934875
   si1_1   Si     0.870178     0.559926     0.976923
   si1_1   Si     0.897630     0.568512     0.959567
   si1_1   Si     0.842651     0.553037     0.929973
   si1_1   Si     0.870103     0.561623     0.912618
   si1_1   Si     0.842940     0.602023     0.954666
   si1_1   Si     0.870392     0.610609     0.937310
   si1_1   Si     0.888526     0.583110     0.930713
   si1_1   Si     0.915978     0.591696     0.913358
   si1_1   Si     0.888815     0.632096     0.955406
   si1_1   Si     0.916267     0.640682     0.938050
   si1_1   Si     0.861288     0.625207     0.908456
   si1_1   Si     0.888740     0.633793     0.891101
   si1_1   Si     0.861578     0.674193     0.933149
   si1_1   Si     0.889030     0.682779     0.915793
   si1_1   Si     0.907163     0.655280     0.909197
   si1_1   Si     0.934615     0.663866     0.891841
   si1_1   Si     0.907453     0.704266     0.933889
   si1_1   Si     0.934905     0.712852     0.916534
   si1_1   Si     0.879926     0.697377     0.886940
   si1_1   Si     0.907378     0.705963     0.869584
   si1_1   Si     0.880215     0.746364     0.911632
   si1_1   Si     0.907667     0.754950     0.894277
   si1_1   Si     0.925801     0.727450     0.887680
   si1_1   Si     0.953253     0.736036     0.870324
   si1_1   Si     0.926090     0.776436     0.912372
   si1_1   Si     0.953542     0.785022     0.895017
   si1_1   Si     0.898563     0.769548     0.865423
   si1_1   Si     0.926015     0.778134     0.848067
   si1_1   Si     0.898853     0.818534     0.890115
   si1_1   Si     0.926305     0.827120     0.872760
   si1_1   Si     0.944438     0.799621     0.866163
   si1_1   Si     0.971890     0.808207     0.848808
   si1_1   Si     0.944728     0.848607     0.890855
   si1_1   Si     0.972180     0.857193     0.873500
   si1_1   Si     0.917201     0.841718     0.843906
   si1_1   Si     0.944653     0.850304     0.826551
   si1_1   Si     0.963076     0.871791     0.844646
   si1_1   Si     0.990528     0.880377     0.827291
   si1_1   Si     0.897050     0.470539     0.910182
   si1_1   Si     0.869523     0.463651     0.863233
   si1_1   Si     0.842361     0.504051     0.905281
   si1_1   Si     0.869813     0.512637     0.887925
   si1_1   Si     0.887946     0.485138     0.881328
   si1_1   Si     0.915398     0.493723     0.863973
   si1_1   Si     0.888236     0.534124     0.906021
   si1_1   Si     0.915688     0.542710     0.888666
   si1_1   Si     0.860709     0.527235     0.859072
   si1_1   Si     0.888161     0.535821     0.841716
   si1_1   Si     0.860998     0.576221     0.883764
   si1_1   Si     0.888450     0.584807     0.866409
   si1_1   Si     0.906584     0.557308     0.859812
   si1_1   Si     0.934036     0.565894     0.842456
   si1_1   Si     0.906873     0.606294     0.884504
   si1_1   Si     0.934325     0.614880     0.867149
   si1_1   Si     0.879346     0.599405     0.837555
   si1_1   Si     0.906798     0.607991     0.820199
   si1_1   Si     0.879636     0.648391     0.862247
   si1_1   Si     0.907088     0.656977     0.844892
   si1_1   Si     0.925221     0.629478     0.838295
   si1_1   Si     0.952673     0.638064     0.820940
   si1_1   Si     0.925511     0.678464     0.862987
   si1_1   Si     0.952963     0.687050     0.845632
   si1_1   Si     0.897984     0.671575     0.816038
   si1_1   Si     0.925436     0.680161     0.798683
   si1_1   Si     0.898273     0.720562     0.840730
   si1_1   Si     0.925725     0.729148     0.823375
   si1_1   Si     0.943859     0.701648     0.816778
   si1_1   Si     0.971311     0.710234     0.799423
   si1_1   Si     0.944148     0.750634     0.841470
   si1_1   Si     0.971600     0.759220     0.824115
   si1_1   Si     0.916621     0.743746     0.794521
   si1_1   Si     0.944073     0.752332     0.777166
   si1_1   Si     0.916911     0.792732     0.819214
   si1_1   Si     0.944363     0.801318     0.801858
   si1_1   Si     0.962496     0.773819     0.795261
   si1_1   Si     0.989948     0.782405     0.777906
   si1_1   Si     0.962786     0.822805     0.819954
   si1_1   Si     0.990238     0.831391     0.802598
   si1_1   Si     0.935259     0.815916     0.773004
   si1_1   Si     0.962711     0.824502     0.755649
   si1_1   Si     0.935549     0.864902     0.797697
   si1_1   Si     0.963001     0.873488     0.780341
   si1_1   Si     0.981134     0.845989     0.773744
   si1_1   Si     0.981423     0.894975     0.798437
   si1_1   Si     0.953896     0.888086     0.751488
   si1_1   Si     0.915108     0.444737     0.839281
   si1_1   Si     0.887581     0.437849     0.792331
   si1_1   Si     0.860419     0.478249     0.834379
   si1_1   Si     0.887871     0.486835     0.817024
   si1_1   Si     0.906004     0.459336     0.810427
   si1_1   Si     0.933456     0.467922     0.793071
   si1_1   Si     0.906294     0.508322     0.835119
   si1_1   Si     0.933746     0.516908     0.817764
   si1_1   Si     0.878767     0.501433     0.788170
   si1_1   Si     0.906219     0.510019     0.770815
   si1_1   Si     0.879056     0.550419     0.812862
   si1_1   Si     0.906508     0.559005     0.795507
   si1_1   Si     0.924642     0.531506     0.788910
   si1_1   Si     0.952094     0.540092     0.771555
   si1_1   Si     0.924931     0.580492     0.813602
   si1_1   Si     0.952383     0.589078     0.796247
   si1_1   Si     0.897404     0.573603     0.766653
   si1_1   Si     0.924856     0.582189     0.749298
   si1_1   Si     0.897694     0.622589     0.791346
   si1_1   Si     0.925146     0.631175     0.773990
   si1_1   Si     0.943279     0.603676     0.767393
   si1_1   Si     0.970731     0.612262     0.750038
   si1_1   Si     0.943569     0.652662     0.792086
   si1_1   Si     0.971021     0.661248     0.774730
   si1_1   Si     0.916042     0.645774     0.745136
   si1_1   Si     0.943494     0.654359     0.727781
   si1_1   Si     0.916332     0.694760     0.769829
   si1_1   Si     0.943784     0.703346     0.752473
   si1_1   Si     0.961917     0.675846     0.745876
   si1_1   Si     0.989369     0.684432     0.728521
   si1_1   Si     0.962206     0.724833     0.770569
   si1_1   Si     0.989658     0.733418     0.753213
   si1_1   Si     0.934679     0.717944     0.723620
   si1_1   Si     0.962131     0.726530     0.706264
   si1_1   Si     0.934969     0.766930     0.748312
   si1_1   Si     0.962421     0.775516     0.730957
   si1_1   Si     0.980554     0.748017     0.724360
   si1_1   Si     0.980844     0.797003     0.749052
   si1_1   Si     0.953317     0.790114     0.702103
   si1_1   Si     0.980769     0.798700     0.684747
   si1_1   Si     0.953607     0.839100     0.726795
   si1_1   Si     0.981059     0.847686     0.709440
   si1_1   Si     0.999192     0.820187     0.702843
   si1_1   Si     0.999482     0.869173     0.727535
   si1_1   Si     0.971954     0.862284     0.680586
   si1_1   Si     0.933166     0.418935     0.768379
   si1_1   Si     0.905929     0.461033     0.746122
   si1_1   Si     0.924062     0.433534     0.739525
   si1_1   Si     0.951514     0.442120     0.722170
   si1_1   Si     0.924352     0.482520     0.764218
   si1_1   Si     0.951804     0.491106     0.746862
   si1_1   Si     0.896825     0.475631     0.717268
   si1_1   Si     0.924277     0.484217     0.699913
   si1_1   Si     0.897115     0.524617     0.741961
   si1_1   Si     0.924567     0.533203     0.724605
   si1_1   Si     0.942700     0.505704     0.718008
   si1_1   Si     0.970152     0.514290     0.700653
   si1_1   Si     0.942989     0.554690     0.742701
   si1_1   Si     0.970441     0.563276     0.725345
   si1_1   Si     0.915462     0.547801     0.695751
   si1_1   Si     0.942914     0.556387     0.678396
   si1_1   Si     0.915752     0.596787     0.720444
   si1_1   Si     0.943204     0.605373     0.703089
   si1_1   Si     0.961337     0.577874     0.696492
   si1_1   Si     0.988789     0.586460     0.679136
   si1_1   Si     0.961627     0.626860     0.721184
   si1_1   Si     0.989079     0.635446     0.703829
   si1_1   Si     0.934100     0.619972     0.674235
   si1_1   Si     0.961552     0.628557     0.656879
   si1_1   Si     0.934390     0.668958     0.698927
   si1_1   Si     0.961842     0.677544     0.681572
   si1_1   Si     0.979975     0.650044     0.674975
   si1_1   Si     0.980265     0.699031     0.699667
   si1_1   Si     0.952737     0.692142     0.652718
   si1_1   Si     0.980189     0.700728     0.635363
   si1_1   Si     0.953027     0.741128     0.677410
   si1_1   Si     0.980479     0.749714     0.660055
   si1_1   Si     0.998612     0.722215     0.653458
   si1_1   Si     0.998902     0.771201     0.678150
   si1_1   Si     0.971375     0.764312     0.631201
   si1_1   Si     0.998827     0.772898     0.613846
   si1_1   Si     0.971665     0.813298     0.655893
   si1_1   Si     0.999117     0.821884     0.638538
   si1_1   Si     0.990012     0.836482     0.609684
   si1_1   Si     0.942410     0.456718     0.693316
   si1_1   Si     0.969862     0.465304     0.675961
   si1_1   Si     0.915173     0.498815     0.671059
   si1_1   Si     0.942625     0.507401     0.653704
   si1_1   Si     0.960758     0.479902     0.647107
   si1_1   Si     0.988210     0.488488     0.629751
   si1_1   Si     0.961048     0.528888     0.671799
   si1_1   Si     0.988500     0.537474     0.654444
   si1_1   Si     0.933810     0.570985     0.649542
   si1_1   Si     0.961262     0.579571     0.632187
   si1_1   Si     0.979395     0.552072     0.625590
   si1_1   Si     0.979685     0.601058     0.650282
   si1_1   Si     0.952448     0.643156     0.628025
   si1_1   Si     0.979900     0.651742     0.610670
   si1_1   Si     0.998033     0.624242     0.604073
   si1_1   Si     0.998323     0.673229     0.628766
   si1_1   Si     0.971085     0.715326     0.606509
   si1_1   Si     0.998537     0.723912     0.589153
   si1_1   Si     0.989723     0.787496     0.584992
   si1_1   Si     0.943795     0.647571     0.985000
   si1_1   Si     0.989670     0.677643     0.985740
   si1_1   Si     0.934980     0.711155     0.980838
   si1_1   Si     0.962432     0.719741     0.963483
   si1_1   Si     0.962722     0.768727     0.988175
   si1_1   Si     0.980855     0.741228     0.981578
   si1_1   Si     0.953618     0.783325     0.959321
   si1_1   Si     0.981070     0.791911     0.941966
   si1_1   Si     0.953907     0.832311     0.984014
   si1_1   Si     0.981359     0.840897     0.966658
   si1_1   Si     0.999493     0.813398     0.960062
   si1_1   Si     0.999782     0.862384     0.984754
   si1_1   Si     0.972255     0.855495     0.937805
   si1_1   Si     0.999707     0.864081     0.920449
   si1_1   Si     0.897126     0.468842     0.974487
   si1_1   Si     0.924578     0.477428     0.957132
   si1_1   Si     0.897415     0.517828     0.999179
   si1_1   Si     0.924867     0.526414     0.981824
   si1_1   Si     0.943001     0.498915     0.975227
   si1_1   Si     0.970453     0.507501     0.957872
   si1_1   Si     0.970742     0.556487     0.982564
   si1_1   Si     0.915763     0.541012     0.952970
   si1_1   Si     0.943215     0.549598     0.935615
   si1_1   Si     0.916053     0.589998     0.977663
   si1_1   Si     0.943505     0.598584     0.960307
   si1_1   Si     0.961638     0.571085     0.953710
   si1_1   Si     0.989090     0.579671     0.936355
   si1_1   Si     0.961928     0.620071     0.978403
   si1_1   Si     0.989380     0.628657     0.961047
   si1_1   Si     0.934401     0.613183     0.931453
   si1_1   Si     0.961853     0.621769     0.914098
   si1_1   Si     0.934690     0.662169     0.956146
   si1_1   Si     0.962142     0.670755     0.938790
   si1_1   Si     0.980276     0.643256     0.932194
   si1_1   Si     0.980565     0.692242     0.956886
   si1_1   Si     0.953038     0.685353     0.909937
   si1_1   Si     0.980490     0.693939     0.892581
   si1_1   Si     0.953328     0.734339     0.934629
   si1_1   Si     0.980780     0.742925     0.917274
   si1_1   Si     0.998913     0.715426     0.910677
   si1_1   Si     0.999203     0.764412     0.935369
   si1_1   Si     0.971676     0.757523     0.888420
   si1_1   Si     0.999128     0.766109     0.871064
   si1_1   Si     0.971965     0.806509     0.913112
   si1_1   Si     0.999417     0.815095     0.895757
   si1_1   Si     0.990313     0.829693     0.866903
   si1_1   Si     0.990603     0.878680     0.891595
   si1_1   Si     0.942711     0.449929     0.950535
   si1_1   Si     0.970163     0.458515     0.933179
   si1_1   Si     0.915184     0.443040     0.903585
   si1_1   Si     0.942636     0.451626     0.886230
   si1_1   Si     0.915473     0.492026     0.928278
   si1_1   Si     0.942925     0.500612     0.910922
   si1_1   Si     0.961059     0.473113     0.904325
   si1_1   Si     0.988511     0.481699     0.886970
   si1_1   Si     0.961348     0.522099     0.929018
   si1_1   Si     0.988800     0.530685     0.911663
   si1_1   Si     0.933821     0.515210     0.882069
   si1_1   Si     0.961273     0.523796     0.864713
   si1_1   Si     0.934111     0.564197     0.906761
   si1_1   Si     0.961563     0.572782     0.889406
   si1_1   Si     0.979696     0.545283     0.882809
   si1_1   Si     0.979986     0.594269     0.907501
   si1_1   Si     0.952459     0.587381     0.860552
   si1_1   Si     0.979911     0.595967     0.843196
   si1_1   Si     0.952748     0.636367     0.885244
   si1_1   Si     0.980200     0.644953     0.867889
   si1_1   Si     0.998334     0.617454     0.861292
   si1_1   Si     0.998623     0.666440     0.885984
   si1_1   Si     0.971096     0.659551     0.839035
   si1_1   Si     0.998548     0.668137     0.821680
   si1_1   Si     0.971386     0.708537     0.863727
   si1_1   Si     0.998838     0.717123     0.846372
   si1_1   Si     0.989734     0.731721     0.817518
   si1_1   Si     0.990023     0.780707     0.842211
   si1_1   Si     0.960769     0.424127     0.879633
   si1_1   Si     0.988221     0.432713     0.862278
   si1_1   Si     0.933242     0.417238     0.832684
   si1_1   Si     0.960694     0.425824     0.815328
   si1_1   Si     0.933531     0.466224     0.857376
   si1_1   Si     0.960983     0.474810     0.840021
   si1_1   Si     0.979117     0.447311     0.833424
   si1_1   Si     0.979406     0.496297     0.858116
   si1_1   Si     0.951879     0.489408     0.811167
   si1_1   Si     0.979331     0.497994     0.793812
   si1_1   Si     0.952169     0.538395     0.835859
   si1_1   Si     0.979621     0.546981     0.818504
   si1_1   Si     0.997754     0.519481     0.811907
   si1_1   Si     0.998044     0.568467     0.836599
   si1_1   Si     0.970517     0.561579     0.789650
   si1_1   Si     0.997969     0.570165     0.772295
   si1_1   Si     0.970806     0.610565     0.814343
   si1_1   Si     0.998258     0.619151     0.796987
   si1_1   Si     0.989154     0.633749     0.768133
   si1_1   Si     0.989444     0.682735     0.792826
   si1_1   Si     0.978827     0.398325     0.808731
   si1_1   Si     0.978752     0.400022     0.744427
   si1_1   Si     0.951589     0.440422     0.786475
   si1_1   Si     0.979041     0.449008     0.769119
   si1_1   Si     0.997175     0.421509     0.762522
   si1_1   Si     0.997464     0.470495     0.787215
   si1_1   Si     0.969937     0.463606     0.740265
   si1_1   Si     0.997389     0.472192     0.722910
   si1_1   Si     0.970227     0.512593     0.764958
   si1_1   Si     0.997679     0.521179     0.747602
   si1_1   Si     0.988575     0.535777     0.718748
   si1_1   Si     0.988864     0.584763     0.743441
   si1_1   Si     0.969647     0.414620     0.715573
   si1_1   Si     0.997099     0.423206     0.698218
   si1_1   Si     0.987995     0.437805     0.669364
   si1_1   Si     0.988285     0.486791     0.694056
   si1_1   Si     0.997690     0.465404     0.980129
   si1_1   Si     0.988876     0.528988     0.975967
   si1_1   Si     0.988296     0.431016     0.926582
   si1_1   Si     0.988586     0.480002     0.951275
